/*---------------------------------------------------------------------------*\
| =========                 |                                                 |
| \\      /  F ield         | OpenFOAM: The Open Source CFD Toolbox           |
|  \\    /   O peration     | Version:  v2012                                 |
|   \\  /    A nd           | Website:  www.openfoam.com                      |
|    \\/     M anipulation  |                                                 |
\*---------------------------------------------------------------------------*/
Build  : _7bdb509494-20201222 OPENFOAM=2012
Arch   : "LSB;label=32;scalar=64"
Exec   : /home/dockeruser/OpenFOAM/OpenFOAM-v2012/platforms/linux64GccDPInt32Opt/bin/buoyantBoussinesqSimpleFoam
Date   : Aug 29 2022
Time   : 17:29:56
Host   : ae62a90841c4
PID    : 1496
I/O    : uncollated
Case   : /foamdata/of2012_projects/hotRoom4D_corrections
nProcs : 1
trapFpe: Floating point exception trapping enabled (FOAM_SIGFPE).
fileModificationChecking : Monitoring run-time modified files using timeStampMaster (fileModificationSkew 5, maxFileModificationPolls 20)
allowSystemOperations : Allowing user-supplied system call operations

// * * * * * * * * * * * * * * * * * * * * * * * * * * * * * * * * * * * * * //
Create time

Create mesh for time = 0


SIMPLE: convergence criteria
    field p_rgh	 tolerance 0.01
    field U	 tolerance 0.0001
    field T	 tolerance 0.01
    field "(k|epsilon|omega)"	 tolerance 0.001

Reading thermophysical properties

Reading field T

Reading field p_rgh

Reading field U

Reading/calculating face flux field phi

Selecting incompressible transport model Newtonian
Creating turbulence model

Selecting turbulence model type RAS
Selecting RAS turbulence model kEpsilon
kEpsilonCoeffs
{
    Cmu             0.09;
    C1              1.44;
    C2              1.92;
    sigmaEps        1.11;
    C3              0;
    sigmak          1;
}

Reading field alphat


Reading g

Reading hRef
Calculating field g.h

No MRF models present

Radiation model not active: radiationProperties not found
Selecting radiationModel none
No finite volume options present

Starting time loop

--> FOAM Warning :
    From simpleFunctionObject::simpleFunctionObject
    in file simpleFunctionObject/simpleFunctionObject.C at line 141
    'outputControlMode' not found in temperature
Assuming: timeStep
--> FOAM Warning :
    From simpleFunctionObject::simpleFunctionObject
    in file simpleFunctionObject/simpleFunctionObject.C at line 150
    'outputInterval' not found in temperature
Assuming: 1
--> FOAM Warning :
    From timelineFunctionObject::timelineFunctionObject
    in file timelineFunctionObject/timelineFunctionObject.C at line 94
    No entry 'writeStartTime' in "/foamdata/of2012_projects/hotRoom4D_corrections/system/controlDict.functions.temperature". Assuming 'no'
swak4Foam: Setting default mesh
--> FOAM Warning :
    From simpleFunctionObject::simpleFunctionObject
    in file simpleFunctionObject/simpleFunctionObject.C at line 141
    'outputControlMode' not found in velocity
Assuming: timeStep
--> FOAM Warning :
    From simpleFunctionObject::simpleFunctionObject
    in file simpleFunctionObject/simpleFunctionObject.C at line 150
    'outputInterval' not found in velocity
Assuming: 1
--> FOAM Warning :
    From timelineFunctionObject::timelineFunctionObject
    in file timelineFunctionObject/timelineFunctionObject.C at line 94
    No entry 'writeStartTime' in "/foamdata/of2012_projects/hotRoom4D_corrections/system/controlDict.functions.velocity". Assuming 'no'
--> FOAM Warning :
    From simpleFunctionObject::simpleFunctionObject
    in file simpleFunctionObject/simpleFunctionObject.C at line 141
    'outputControlMode' not found in epsilon
Assuming: timeStep
--> FOAM Warning :
    From simpleFunctionObject::simpleFunctionObject
    in file simpleFunctionObject/simpleFunctionObject.C at line 150
    'outputInterval' not found in epsilon
Assuming: 1
--> FOAM Warning :
    From timelineFunctionObject::timelineFunctionObject
    in file timelineFunctionObject/timelineFunctionObject.C at line 94
    No entry 'writeStartTime' in "/foamdata/of2012_projects/hotRoom4D_corrections/system/controlDict.functions.epsilon". Assuming 'no'
--> FOAM Warning :
    From simpleFunctionObject::simpleFunctionObject
    in file simpleFunctionObject/simpleFunctionObject.C at line 141
    'outputControlMode' not found in tke
Assuming: timeStep
--> FOAM Warning :
    From simpleFunctionObject::simpleFunctionObject
    in file simpleFunctionObject/simpleFunctionObject.C at line 150
    'outputInterval' not found in tke
Assuming: 1
--> FOAM Warning :
    From timelineFunctionObject::timelineFunctionObject
    in file timelineFunctionObject/timelineFunctionObject.C at line 94
    No entry 'writeStartTime' in "/foamdata/of2012_projects/hotRoom4D_corrections/system/controlDict.functions.tke". Assuming 'no'
--> FOAM Warning :
    From simpleFunctionObject::simpleFunctionObject
    in file simpleFunctionObject/simpleFunctionObject.C at line 141
    'outputControlMode' not found in p_rgh
Assuming: timeStep
--> FOAM Warning :
    From simpleFunctionObject::simpleFunctionObject
    in file simpleFunctionObject/simpleFunctionObject.C at line 150
    'outputInterval' not found in p_rgh
Assuming: 1
--> FOAM Warning :
    From timelineFunctionObject::timelineFunctionObject
    in file timelineFunctionObject/timelineFunctionObject.C at line 94
    No entry 'writeStartTime' in "/foamdata/of2012_projects/hotRoom4D_corrections/system/controlDict.functions.p_rgh". Assuming 'no'
Time = 1

DILUPBiCGStab:  Solving for Ux, Initial residual = 1, Final residual = 0.00291494, No Iterations 1
DILUPBiCGStab:  Solving for Uy, Initial residual = 1, Final residual = 0.00993249, No Iterations 1
DILUPBiCGStab:  Solving for Uz, Initial residual = 1, Final residual = 0.00316247, No Iterations 1
DILUPBiCGStab:  Solving for T, Initial residual = 0.48051, Final residual = 0.0161174, No Iterations 1
DICPCG:  Solving for p_rgh, Initial residual = 1, Final residual = 0.00996797, No Iterations 733
time step continuity errors : sum local = 276.993, global = -0.255359, cumulative = -0.255359
DILUPBiCGStab:  Solving for epsilon, Initial residual = 0.99488, Final residual = 0.0264094, No Iterations 1
bounding epsilon, min: -0.0372944 max: 112.922 average: 0.736366
DILUPBiCGStab:  Solving for k, Initial residual = 1, Final residual = 0.0360763, No Iterations 1
ExecutionTime = 6.38 s  ClockTime = 7 s

    functionObjects::CourantNo CourantNo writing field: Co
Expression temperature : swak4Foam: Allocating new repository for sampledMeshes
swak4Foam: Allocating new repository for sampledGlobalVariables
 min=300 weightedQuantile0.1=300 weightedAverage=300 weightedQuantile0.9=300 max=300
Expression velocity :  min=-224.887 weightedQuantile0.1=-23.6156 weightedAverage=3.43428 weightedQuantile0.9=30.3256 max=108.109
Expression epsilon :  min=0.0036592 weightedQuantile0.1=0.127127 weightedAverage=0.725581 weightedQuantile0.9=1.6577 max=112.922
Expression tke :  min=0.0321439 weightedQuantile0.1=1.50343 weightedAverage=5.42123 weightedQuantile0.9=10.4129 max=63.9715
Expression p_rgh :  min=0.0321439 weightedQuantile0.1=1.50343 weightedAverage=5.42123 weightedQuantile0.9=10.4129 max=63.9715
Time = 2

DILUPBiCGStab:  Solving for Ux, Initial residual = 0.164865, Final residual = 0.00257312, No Iterations 1
DILUPBiCGStab:  Solving for Uy, Initial residual = 0.164421, Final residual = 0.00273139, No Iterations 1
DILUPBiCGStab:  Solving for Uz, Initial residual = 0.17028, Final residual = 0.00254066, No Iterations 1
DILUPBiCGStab:  Solving for T, Initial residual = 0.407063, Final residual = 0.0239615, No Iterations 1
DICPCG:  Solving for p_rgh, Initial residual = 9.28541e-12, Final residual = 9.28541e-12, No Iterations 0
time step continuity errors : sum local = 53.0856, global = -0.324898, cumulative = -0.580257
DILUPBiCGStab:  Solving for epsilon, Initial residual = 0.917962, Final residual = 0.0102585, No Iterations 1
bounding epsilon, min: -1.62375 max: 6533.78 average: 58.7411
DILUPBiCGStab:  Solving for k, Initial residual = 0.977276, Final residual = 0.0120143, No Iterations 1
ExecutionTime = 8.43 s  ClockTime = 10 s

    functionObjects::CourantNo CourantNo writing field: Co
Expression temperature :  min=300 weightedQuantile0.1=300 weightedAverage=300 weightedQuantile0.9=300 max=300
Expression velocity :  min=-172.879 weightedQuantile0.1=-18.1901 weightedAverage=3.11332 weightedQuantile0.9=24.5892 max=207.954
Expression epsilon :  min=0.00431005 weightedQuantile0.1=15.6789 weightedAverage=66.0526 weightedQuantile0.9=130.231 max=6533.78
Expression tke :  min=0.0360363 weightedQuantile0.1=101.1 weightedAverage=326.302 weightedQuantile0.9=628.766 max=5143.27
Expression p_rgh :  min=0.0360363 weightedQuantile0.1=101.1 weightedAverage=326.302 weightedQuantile0.9=628.766 max=5143.27
Time = 3

DILUPBiCGStab:  Solving for Ux, Initial residual = 0.255499, Final residual = 0.000850589, No Iterations 1
DILUPBiCGStab:  Solving for Uy, Initial residual = 0.215038, Final residual = 0.000839475, No Iterations 1
DILUPBiCGStab:  Solving for Uz, Initial residual = 0.247799, Final residual = 0.00071944, No Iterations 1
DILUPBiCGStab:  Solving for T, Initial residual = 0.364178, Final residual = 0.00486271, No Iterations 1
DICPCG:  Solving for p_rgh, Initial residual = 4.5829e-12, Final residual = 4.5829e-12, No Iterations 0
time step continuity errors : sum local = 38.3794, global = -0.578821, cumulative = -1.15908
DILUPBiCGStab:  Solving for epsilon, Initial residual = 0.0863975, Final residual = 6.51932e-05, No Iterations 1
bounding epsilon, min: -8986.31 max: 727421 average: 570.633
DILUPBiCGStab:  Solving for k, Initial residual = 0.374037, Final residual = 0.0153821, No Iterations 1
ExecutionTime = 10.44 s  ClockTime = 12 s

    functionObjects::CourantNo CourantNo writing field: Co
Expression temperature :  min=300 weightedQuantile0.1=300 weightedAverage=300 weightedQuantile0.9=300 max=300
Expression velocity :  min=-4336.07 weightedQuantile0.1=-14.5155 weightedAverage=2.77038 weightedQuantile0.9=19.5408 max=146.215
Expression epsilon :  min=0.0286523 weightedQuantile0.1=105.496 weightedAverage=416.802 weightedQuantile0.9=949.462 max=727421
Expression tke :  min=0.0133895 weightedQuantile0.1=1001.92 weightedAverage=825.168 weightedQuantile0.9=9017.26 max=1.07392e+06
Expression p_rgh :  min=0.0133895 weightedQuantile0.1=1001.92 weightedAverage=825.168 weightedQuantile0.9=9017.26 max=1.07392e+06
Time = 4

DILUPBiCGStab:  Solving for Ux, Initial residual = 0.220573, Final residual = 0.000858036, No Iterations 1
DILUPBiCGStab:  Solving for Uy, Initial residual = 0.275915, Final residual = 0.0015903, No Iterations 1
DILUPBiCGStab:  Solving for Uz, Initial residual = 0.234467, Final residual = 0.000820112, No Iterations 1
DILUPBiCGStab:  Solving for T, Initial residual = 0.381717, Final residual = 0.0105801, No Iterations 1
DICPCG:  Solving for p_rgh, Initial residual = 3.98601e-12, Final residual = 3.98601e-12, No Iterations 0
time step continuity errors : sum local = 30.4972, global = -1.06519, cumulative = -2.22427
DILUPBiCGStab:  Solving for epsilon, Initial residual = 0.318759, Final residual = 0.0045707, No Iterations 1
bounding epsilon, min: -1.40344e+06 max: 9.102e+07 average: 36662.6
DILUPBiCGStab:  Solving for k, Initial residual = 0.604252, Final residual = 0.0533364, No Iterations 1
ExecutionTime = 12.41 s  ClockTime = 15 s

    functionObjects::CourantNo CourantNo writing field: Co
Expression temperature :  min=300 weightedQuantile0.1=300 weightedAverage=300 weightedQuantile0.9=300 max=300
Expression velocity :  min=-3830.91 weightedQuantile0.1=-10.5516 weightedAverage=2.76013 weightedQuantile0.9=17.4511 max=3994.91
Expression epsilon :  min=1e-15 weightedQuantile0.1=10019.5 weightedAverage=7994.91 weightedQuantile0.9=90175.4 max=9.102e+07
Expression tke :  min=0.00532525 weightedQuantile0.1=1006.54 weightedAverage=1687.82 weightedQuantile0.9=9058.85 max=6.76934e+06
Expression p_rgh :  min=0.00532525 weightedQuantile0.1=1006.54 weightedAverage=1687.82 weightedQuantile0.9=9058.85 max=6.76934e+06
Time = 5

DILUPBiCGStab:  Solving for Ux, Initial residual = 0.0546708, Final residual = 3.94342e-15, No Iterations 1
DILUPBiCGStab:  Solving for Uy, Initial residual = 0.310772, Final residual = 8.04144e-15, No Iterations 1
DILUPBiCGStab:  Solving for Uz, Initial residual = 0.0395399, Final residual = 3.18854e-15, No Iterations 1
DILUPBiCGStab:  Solving for T, Initial residual = 0.257143, Final residual = 2.04242e-15, No Iterations 1
DICPCG:  Solving for p_rgh, Initial residual = 3.70956e-12, Final residual = 3.70956e-12, No Iterations 0
time step continuity errors : sum local = 26.6612, global = -1.28503, cumulative = -3.5093
DILUPBiCGStab:  Solving for epsilon, Initial residual = 0.000211555, Final residual = 3.9877e-12, No Iterations 1
bounding epsilon, min: -1.02762e+09 max: 4.41284e+10 average: 8.52715e+06
DILUPBiCGStab:  Solving for k, Initial residual = 0.135914, Final residual = 1.72678e-12, No Iterations 1
bounding k, min: -1282.85 max: 6.04773e+06 average: 4648.18
ExecutionTime = 14.4 s  ClockTime = 17 s

    functionObjects::CourantNo CourantNo writing field: Co
Expression temperature :  min=300 weightedQuantile0.1=300 weightedAverage=300 weightedQuantile0.9=300 max=300
Expression velocity :  min=-18095.6 weightedQuantile0.1=-72.2694 weightedAverage=1.84882 weightedQuantile0.9=84.4281 max=382.638
Expression epsilon :  min=0.00251767 weightedQuantile0.1=1.00056e+07 weightedAverage=2.26686e+06 weightedQuantile0.9=9.00503e+07 max=4.41284e+10
Expression tke :  min=0.00254244 weightedQuantile0.1=1013.44 weightedAverage=2453.37 weightedQuantile0.9=9120.95 max=6.04773e+06
Expression p_rgh :  min=0.00254244 weightedQuantile0.1=1013.44 weightedAverage=2453.37 weightedQuantile0.9=9120.95 max=6.04773e+06
Time = 6

DILUPBiCGStab:  Solving for Ux, Initial residual = 0.0649412, Final residual = 0.000107907, No Iterations 1
DILUPBiCGStab:  Solving for Uy, Initial residual = 0.257567, Final residual = 2.13174e-05, No Iterations 1
DILUPBiCGStab:  Solving for Uz, Initial residual = 0.289434, Final residual = 3.70744e-05, No Iterations 1
DILUPBiCGStab:  Solving for T, Initial residual = 0.357954, Final residual = 0.00526412, No Iterations 1
DICPCG:  Solving for p_rgh, Initial residual = 4.68691e-12, Final residual = 4.68691e-12, No Iterations 0
time step continuity errors : sum local = 32.2081, global = -3.37688, cumulative = -6.88618
DILUPBiCGStab:  Solving for epsilon, Initial residual = 0.187959, Final residual = 0.000417885, No Iterations 1
bounding epsilon, min: -2.36831e+07 max: 5.43131e+11 average: 5.74756e+07
DILUPBiCGStab:  Solving for k, Initial residual = 0.571546, Final residual = 0.000542443, No Iterations 1
bounding k, min: -26315.4 max: 3.9205e+07 average: 9804.52
ExecutionTime = 16.37 s  ClockTime = 20 s

    functionObjects::CourantNo CourantNo writing field: Co
Expression temperature :  min=300 weightedQuantile0.1=300 weightedAverage=300 weightedQuantile0.9=300 max=300
Expression velocity :  min=-40472.9 weightedQuantile0.1=-70.8994 weightedAverage=1.22191 weightedQuantile0.9=84.8749 max=40537.7
Expression epsilon :  min=1e-15 weightedQuantile0.1=1.00027e+08 weightedAverage=1.41339e+07 weightedQuantile0.9=9.00247e+08 max=5.43131e+11
Expression tke :  min=0.00136428 weightedQuantile0.1=10027.1 weightedAverage=4068.22 weightedQuantile0.9=90244.2 max=3.9205e+07
Expression p_rgh :  min=0.00136428 weightedQuantile0.1=10027.1 weightedAverage=4068.22 weightedQuantile0.9=90244.2 max=3.9205e+07
Time = 7

DILUPBiCGStab:  Solving for Ux, Initial residual = 0.19841, Final residual = 3.10219e-07, No Iterations 1
DILUPBiCGStab:  Solving for Uy, Initial residual = 0.28451, Final residual = 2.17474e-07, No Iterations 1
DILUPBiCGStab:  Solving for Uz, Initial residual = 0.198442, Final residual = 6.06507e-08, No Iterations 1
DILUPBiCGStab:  Solving for T, Initial residual = 0.207194, Final residual = 6.69076e-07, No Iterations 1
DICPCG:  Solving for p_rgh, Initial residual = 1.10191e-11, Final residual = 1.10191e-11, No Iterations 0
time step continuity errors : sum local = 73.3228, global = -45.3796, cumulative = -52.2658
DILUPBiCGStab:  Solving for epsilon, Initial residual = 0.00315834, Final residual = 1.08638e-06, No Iterations 1
bounding epsilon, min: -1.89769e+08 max: 2.19257e+12 average: 3.80086e+08
DILUPBiCGStab:  Solving for k, Initial residual = 0.14062, Final residual = 3.06482e-06, No Iterations 1
bounding k, min: -134185 max: 9.86227e+07 average: 57146.6
ExecutionTime = 18.33 s  ClockTime = 22 s

    functionObjects::CourantNo CourantNo writing field: Co
Expression temperature :  min=300 weightedQuantile0.1=300 weightedAverage=300 weightedQuantile0.9=300 max=300
Expression velocity :  min=-774521 weightedQuantile0.1=-691.614 weightedAverage=-6.01029 weightedQuantile0.9=852.637 max=137705
Expression epsilon :  min=1e-15 weightedQuantile0.1=1.00083e+09 weightedAverage=9.60015e+07 weightedQuantile0.9=9.00743e+09 max=2.19257e+12
Expression tke :  min=0.000651329 weightedQuantile0.1=10037.8 weightedAverage=15957.1 weightedQuantile0.9=90340.4 max=9.86227e+07
Expression p_rgh :  min=0.000651329 weightedQuantile0.1=10037.8 weightedAverage=15957.1 weightedQuantile0.9=90340.4 max=9.86227e+07
Time = 8

DILUPBiCGStab:  Solving for Ux, Initial residual = 0.887366, Final residual = 0.037743, No Iterations 1
DILUPBiCGStab:  Solving for Uy, Initial residual = 0.628702, Final residual = 0.0392804, No Iterations 1
DILUPBiCGStab:  Solving for Uz, Initial residual = 0.582515, Final residual = 0.028986, No Iterations 1
DILUPBiCGStab:  Solving for T, Initial residual = 0.72973, Final residual = 6.61041e-14, No Iterations 1
DICPCG:  Solving for p_rgh, Initial residual = 0.99955, Final residual = 0.00984615, No Iterations 991
time step continuity errors : sum local = 9.01332e+18, global = -8.06866e+15, cumulative = -8.06866e+15
DILUPBiCGStab:  Solving for epsilon, Initial residual = 1, Final residual = 0.013067, No Iterations 1
DILUPBiCGStab:  Solving for k, Initial residual = 1, Final residual = 0.0221603, No Iterations 1
bounding k, min: -947.705 max: 7.61905e+21 average: 1.58191e+20
ExecutionTime = 24.89 s  ClockTime = 29 s

    functionObjects::CourantNo CourantNo writing field: Co
Expression temperature :  min=300 weightedQuantile0.1=300 weightedAverage=300 weightedQuantile0.9=300 max=300
Expression velocity :  min=-1.15032e+20 weightedQuantile0.1=-9.1908e+17 weightedAverage=-1.79635e+17 weightedQuantile0.9=7.65647e+17 max=1.5069e+20
Expression epsilon :  min=0.000107693 weightedQuantile0.1=1.00002e+30 weightedAverage=1.88579e+29 weightedQuantile0.9=9.00022e+30 max=7.75164e+33
Expression tke :  min=0.00454671 weightedQuantile0.1=3.50655e+19 weightedAverage=1.46105e+20 weightedQuantile0.9=2.86689e+20 max=7.61905e+21
Expression p_rgh :  min=0.00454671 weightedQuantile0.1=3.50655e+19 weightedAverage=1.46105e+20 weightedQuantile0.9=2.86689e+20 max=7.61905e+21
Time = 9

DILUPBiCGStab:  Solving for Ux, Initial residual = 0.267547, Final residual = 0.00161082, No Iterations 1
DILUPBiCGStab:  Solving for Uy, Initial residual = 0.270846, Final residual = 0.000795164, No Iterations 1
DILUPBiCGStab:  Solving for Uz, Initial residual = 0.277996, Final residual = 0.00100148, No Iterations 1
DILUPBiCGStab:  Solving for T, Initial residual = 0.347025, Final residual = 0.00664982, No Iterations 1
DICPCG:  Solving for p_rgh, Initial residual = 1, Final residual = 43645.8, No Iterations 1000
time step continuity errors : sum local = 3.86007e+23, global = -7.41479e+17, cumulative = -7.49547e+17
DILUPBiCGStab:  Solving for epsilon, Initial residual = 0.999983, Final residual = 0.00468484, No Iterations 1
DILUPBiCGStab:  Solving for k, Initial residual = 1, Final residual = 0.0199555, No Iterations 1
ExecutionTime = 31.63 s  ClockTime = 37 s

    functionObjects::CourantNo CourantNo writing field: Co
Expression temperature :  min=300 weightedQuantile0.1=300 weightedAverage=300 weightedQuantile0.9=300 max=300
Expression velocity :  min=-6.6432e+25 weightedQuantile0.1=-6.40392e+23 weightedAverage=5.66604e+23 weightedQuantile0.9=1.18138e+24 max=7.31871e+26
Expression epsilon :  min=0.00202822 weightedQuantile0.1=1.00189e+45 weightedAverage=1.5285e+44 weightedQuantile0.9=9.01702e+45 max=1.622e+48
Expression tke :  min=6.68148e+21 weightedQuantile0.1=2.36067e+42 weightedAverage=2.24704e+43 weightedQuantile0.9=4.62983e+43 max=1.55627e+45
Expression p_rgh :  min=6.68148e+21 weightedQuantile0.1=2.36067e+42 weightedAverage=2.24704e+43 weightedQuantile0.9=4.62983e+43 max=1.55627e+45
Time = 10

DILUPBiCGStab:  Solving for Ux, Initial residual = 0.230226, Final residual = 0.00196396, No Iterations 1
DILUPBiCGStab:  Solving for Uy, Initial residual = 0.236882, Final residual = 0.00247675, No Iterations 1
DILUPBiCGStab:  Solving for Uz, Initial residual = 0.231687, Final residual = 0.00238893, No Iterations 1
DILUPBiCGStab:  Solving for T, Initial residual = 0.332445, Final residual = 0.0113071, No Iterations 1
DICPCG:  Solving for p_rgh, Initial residual = 0.995316, Final residual = 885.007, No Iterations 1000
time step continuity errors : sum local = 1.26957e+27, global = 2.693e+22, cumulative = 2.69292e+22
DILUPBiCGStab:  Solving for epsilon, Initial residual = 0.142589, Final residual = 6.66198e-18, No Iterations 1
bounding epsilon, min: -5.67349e+64 max: 6.77352e+66 average: 3.73107e+63
DILUPBiCGStab:  Solving for k, Initial residual = 0.529131, Final residual = 0.0351901, No Iterations 1
bounding k, min: -1.87276e+43 max: 4.2201e+56 average: 1.13033e+53
ExecutionTime = 38.37 s  ClockTime = 44 s

    functionObjects::CourantNo CourantNo writing field: Co
Expression temperature :  min=300 weightedQuantile0.1=300 weightedAverage=300 weightedQuantile0.9=300 max=300
Expression velocity :  min=-1.84822e+31 weightedQuantile0.1=-3.90073e+28 weightedAverage=-1.49747e+26 weightedQuantile0.9=8.80407e+28 max=7.2294e+30
Expression epsilon :  min=1e-15 weightedQuantile0.1=1.00609e+63 weightedAverage=4.71927e+62 weightedQuantile0.9=9.05484e+63 max=6.77352e+66
Expression tke :  min=1e-15 weightedQuantile0.1=1.00011e+53 weightedAverage=3.07016e+51 weightedQuantile0.9=9.00098e+53 max=4.2201e+56
Expression p_rgh :  min=1e-15 weightedQuantile0.1=1.00011e+53 weightedAverage=3.07016e+51 weightedQuantile0.9=9.00098e+53 max=4.2201e+56
Time = 11

DILUPBiCGStab:  Solving for Ux, Initial residual = 0.000277178, Final residual = 4.58022e-09, No Iterations 1
DILUPBiCGStab:  Solving for Uy, Initial residual = 0.000518552, Final residual = 7.07641e-09, No Iterations 1
DILUPBiCGStab:  Solving for Uz, Initial residual = 0.00109779, Final residual = 3.41517e-08, No Iterations 1
DILUPBiCGStab:  Solving for T, Initial residual = 0.0854888, Final residual = 3.17305e-06, No Iterations 1


--> FOAM FATAL ERROR: (openfoam-2012)
Continuity error cannot be removed by adjusting the outflow.
Please check the velocity boundary conditions and/or run potentialFoam to initialise the outflow.
Total flux              : 1.82907e+81
Specified mass inflow   : 6.34444e+73
Specified mass outflow  : 0
Adjustable mass outflow : 2.16684e+64


    From bool Foam::adjustPhi(Foam::surfaceScalarField&, const volVectorField&, Foam::volScalarField&)
    in file cfdTools/general/adjustPhi/adjustPhi.C at line 110.

FOAM exiting

