/*---------------------------------------------------------------------------*\
| =========                 |                                                 |
| \\      /  F ield         | OpenFOAM: The Open Source CFD Toolbox           |
|  \\    /   O peration     | Version:  2012                                  |
|   \\  /    A nd           | Website:  www.openfoam.com                      |
|    \\/     M anipulation  |                                                 |
\*---------------------------------------------------------------------------*/
Build  : _269d0ffd5c-20210619 OPENFOAM=2012 patch=210618
Arch   : "LSB;label=32;scalar=64"
Exec   : /usr/lib/openfoam/openfoam2012/platforms/linux64GccDPInt32Opt/bin/simpleFoam
Date   : Aug 24 2022
Time   : 09:17:44
Host   : 3f00c51680b0
PID    : 792
I/O    : uncollated
Case   : /home/openfoam/of2012_projects/hotRoom6C_ABL
nProcs : 1
trapFpe: Floating point exception trapping enabled (FOAM_SIGFPE).
fileModificationChecking : Monitoring run-time modified files using timeStampMaster (fileModificationSkew 5, maxFileModificationPolls 20)
allowSystemOperations : Allowing user-supplied system call operations

// * * * * * * * * * * * * * * * * * * * * * * * * * * * * * * * * * * * * * //
Create time

Create mesh for time = 120


SIMPLE: convergence criteria
    field p	 tolerance 0.01
    field U	 tolerance 0.001
    field "(k|epsilon|omega|f|v2)"	 tolerance 0.001

Reading field p

Reading field U

Reading/calculating face flux field phi

Selecting incompressible transport model Newtonian
Selecting turbulence model type RAS
Selecting RAS turbulence model kEpsilon
RAS
{
    RASModel        kEpsilon;
    turbulence      on;
    printCoeffs     on;
    Cmu             0.09;
    C1              1.44;
    C2              1.92;
    C3              0;
    sigmak          1;
    sigmaEps        1.3;
}

No MRF models present

No finite volume options present

Starting time loop

Time = 121

smoothSolver:  Solving for Ux, Initial residual = 0.00570528, Final residual = 0.000381854, No Iterations 2
smoothSolver:  Solving for Uy, Initial residual = 0.00669196, Final residual = 0.000257093, No Iterations 2
smoothSolver:  Solving for Uz, Initial residual = 0.0105053, Final residual = 0.000405336, No Iterations 2
GAMG:  Solving for p, Initial residual = 0.010507, Final residual = 0.000270336, No Iterations 2
time step continuity errors : sum local = 0.000378094, global = -4.3764e-05, cumulative = 0.0305429
smoothSolver:  Solving for epsilon, Initial residual = 0.00497196, Final residual = 0.000229918, No Iterations 2
bounding epsilon, min: -0.337623 max: 1999.29 average: 34.0162
smoothSolver:  Solving for k, Initial residual = 0.00305051, Final residual = 0.000156923, No Iterations 2
bounding k, min: -0.148148 max: 123.45 average: 5.80529
ExecutionTime = 3.47 s  ClockTime = 4 s

Time = 122

smoothSolver:  Solving for Ux, Initial residual = 0.00563984, Final residual = 0.00037942, No Iterations 2
smoothSolver:  Solving for Uy, Initial residual = 0.00654638, Final residual = 0.000258925, No Iterations 2
smoothSolver:  Solving for Uz, Initial residual = 0.0103448, Final residual = 0.000406039, No Iterations 2
GAMG:  Solving for p, Initial residual = 0.0103424, Final residual = 0.00023625, No Iterations 2
time step continuity errors : sum local = 0.000326704, global = 3.95106e-05, cumulative = 0.0305824
smoothSolver:  Solving for epsilon, Initial residual = 0.00496165, Final residual = 0.000229946, No Iterations 2
bounding epsilon, min: -0.368573 max: 1997.37 average: 33.8669
smoothSolver:  Solving for k, Initial residual = 0.00299102, Final residual = 0.000155682, No Iterations 2
bounding k, min: -0.155311 max: 123.31 average: 5.81343
ExecutionTime = 4.31 s  ClockTime = 5 s

Time = 123

smoothSolver:  Solving for Ux, Initial residual = 0.0056072, Final residual = 0.000374584, No Iterations 2
smoothSolver:  Solving for Uy, Initial residual = 0.00646206, Final residual = 0.000257082, No Iterations 2
smoothSolver:  Solving for Uz, Initial residual = 0.0102172, Final residual = 0.000401217, No Iterations 2
GAMG:  Solving for p, Initial residual = 0.0103211, Final residual = 0.000231208, No Iterations 2
time step continuity errors : sum local = 0.000316499, global = 6.37679e-05, cumulative = 0.0306462
smoothSolver:  Solving for epsilon, Initial residual = 0.00487897, Final residual = 0.00022559, No Iterations 2
bounding epsilon, min: -0.326164 max: 1995.02 average: 33.7114
smoothSolver:  Solving for k, Initial residual = 0.0029725, Final residual = 0.000153476, No Iterations 2
bounding k, min: -0.141888 max: 123.189 average: 5.82084
ExecutionTime = 5.2 s  ClockTime = 6 s

Time = 124

smoothSolver:  Solving for Ux, Initial residual = 0.00554324, Final residual = 0.000372417, No Iterations 2
smoothSolver:  Solving for Uy, Initial residual = 0.00635071, Final residual = 0.000260377, No Iterations 2
smoothSolver:  Solving for Uz, Initial residual = 0.0100794, Final residual = 0.000404086, No Iterations 2
GAMG:  Solving for p, Initial residual = 0.010218, Final residual = 0.000235591, No Iterations 2
time step continuity errors : sum local = 0.000319042, global = 5.93187e-05, cumulative = 0.0307055
smoothSolver:  Solving for epsilon, Initial residual = 0.00486903, Final residual = 0.000226839, No Iterations 2
bounding epsilon, min: -0.388917 max: 1993.03 average: 33.559
smoothSolver:  Solving for k, Initial residual = 0.00292259, Final residual = 0.000152829, No Iterations 2
bounding k, min: -0.155629 max: 123.068 average: 5.82807
ExecutionTime = 6.03 s  ClockTime = 7 s

Time = 125

smoothSolver:  Solving for Ux, Initial residual = 0.00549904, Final residual = 0.000370269, No Iterations 2
smoothSolver:  Solving for Uy, Initial residual = 0.00628487, Final residual = 0.000259008, No Iterations 2
smoothSolver:  Solving for Uz, Initial residual = 0.00999514, Final residual = 0.000399532, No Iterations 2
GAMG:  Solving for p, Initial residual = 0.01013, Final residual = 0.000224423, No Iterations 2
time step continuity errors : sum local = 0.000300839, global = 5.34463e-05, cumulative = 0.030759
smoothSolver:  Solving for epsilon, Initial residual = 0.00482728, Final residual = 0.000223144, No Iterations 2
bounding epsilon, min: -0.309371 max: 1990.55 average: 33.4015
smoothSolver:  Solving for k, Initial residual = 0.00293537, Final residual = 0.000150897, No Iterations 2
bounding k, min: -0.129769 max: 122.956 average: 5.83483
ExecutionTime = 6.86 s  ClockTime = 8 s

Time = 126

smoothSolver:  Solving for Ux, Initial residual = 0.00545954, Final residual = 0.000369168, No Iterations 2
smoothSolver:  Solving for Uy, Initial residual = 0.00619176, Final residual = 0.000260363, No Iterations 2
smoothSolver:  Solving for Uz, Initial residual = 0.00981806, Final residual = 0.000400052, No Iterations 2
GAMG:  Solving for p, Initial residual = 0.0100171, Final residual = 0.000203858, No Iterations 2
time step continuity errors : sum local = 0.000270391, global = -1.8367e-05, cumulative = 0.0307406
smoothSolver:  Solving for epsilon, Initial residual = 0.00482387, Final residual = 0.000223267, No Iterations 2
bounding epsilon, min: -0.371031 max: 1988.51 average: 33.2491
smoothSolver:  Solving for k, Initial residual = 0.0028817, Final residual = 0.000150825, No Iterations 2
bounding k, min: -0.155958 max: 122.839 average: 5.84171
ExecutionTime = 7.68 s  ClockTime = 8 s

Time = 127

smoothSolver:  Solving for Ux, Initial residual = 0.00554834, Final residual = 0.000377211, No Iterations 2
smoothSolver:  Solving for Uy, Initial residual = 0.00620024, Final residual = 0.000260696, No Iterations 2
smoothSolver:  Solving for Uz, Initial residual = 0.0103191, Final residual = 0.000425694, No Iterations 2
GAMG:  Solving for p, Initial residual = 0.0103061, Final residual = 0.000264656, No Iterations 2
time step continuity errors : sum local = 0.000347479, global = -1.89744e-06, cumulative = 0.0307387
smoothSolver:  Solving for epsilon, Initial residual = 0.00475683, Final residual = 0.000219564, No Iterations 2
bounding epsilon, min: -0.342527 max: 1986.03 average: 33.0918
smoothSolver:  Solving for k, Initial residual = 0.00290779, Final residual = 0.00015095, No Iterations 2
bounding k, min: -0.121152 max: 122.728 average: 5.84804
ExecutionTime = 8.52 s  ClockTime = 9 s

Time = 128

smoothSolver:  Solving for Ux, Initial residual = 0.00547354, Final residual = 0.000366722, No Iterations 2
smoothSolver:  Solving for Uy, Initial residual = 0.00657841, Final residual = 0.000263931, No Iterations 2
smoothSolver:  Solving for Uz, Initial residual = 0.0103846, Final residual = 0.000396781, No Iterations 2
GAMG:  Solving for p, Initial residual = 0.00990876, Final residual = 0.000216959, No Iterations 2
time step continuity errors : sum local = 0.000282121, global = 1.58248e-05, cumulative = 0.0307545
smoothSolver:  Solving for epsilon, Initial residual = 0.00474991, Final residual = 0.000221726, No Iterations 2
bounding epsilon, min: -0.428989 max: 1983.84 average: 32.9395
smoothSolver:  Solving for k, Initial residual = 0.0028855, Final residual = 0.000149647, No Iterations 2
bounding k, min: -0.210997 max: 122.611 average: 5.85436
ExecutionTime = 9.35 s  ClockTime = 10 s

Time = 129

smoothSolver:  Solving for Ux, Initial residual = 0.00541375, Final residual = 0.000364225, No Iterations 2
smoothSolver:  Solving for Uy, Initial residual = 0.0062343, Final residual = 0.0002571, No Iterations 2
smoothSolver:  Solving for Uz, Initial residual = 0.00993922, Final residual = 0.000395861, No Iterations 2
GAMG:  Solving for p, Initial residual = 0.00984185, Final residual = 0.00021317, No Iterations 2
time step continuity errors : sum local = 0.000274539, global = -2.3216e-05, cumulative = 0.0307313
smoothSolver:  Solving for epsilon, Initial residual = 0.00470568, Final residual = 0.00021804, No Iterations 2
bounding epsilon, min: -0.334742 max: 1981.19 average: 32.7822
smoothSolver:  Solving for k, Initial residual = 0.00290851, Final residual = 0.000147685, No Iterations 2
bounding k, min: -0.124811 max: 122.498 average: 5.86001
ExecutionTime = 10.17 s  ClockTime = 11 s

Time = 130

smoothSolver:  Solving for Ux, Initial residual = 0.00535943, Final residual = 0.000363687, No Iterations 2
smoothSolver:  Solving for Uy, Initial residual = 0.00609741, Final residual = 0.000261958, No Iterations 2
smoothSolver:  Solving for Uz, Initial residual = 0.00973596, Final residual = 0.000403057, No Iterations 2
GAMG:  Solving for p, Initial residual = 0.00971695, Final residual = 0.000218994, No Iterations 2
time step continuity errors : sum local = 0.000279153, global = 1.99057e-05, cumulative = 0.0307512
smoothSolver:  Solving for epsilon, Initial residual = 0.00468689, Final residual = 0.000218242, No Iterations 2
bounding epsilon, min: -0.314344 max: 1978.99 average: 32.6307
smoothSolver:  Solving for k, Initial residual = 0.00284367, Final residual = 0.00014687, No Iterations 2
bounding k, min: -0.143647 max: 122.38 average: 5.86566
ExecutionTime = 10.99 s  ClockTime = 12 s

Time = 131

smoothSolver:  Solving for Ux, Initial residual = 0.00532518, Final residual = 0.000361398, No Iterations 2
smoothSolver:  Solving for Uy, Initial residual = 0.00601093, Final residual = 0.000259438, No Iterations 2
smoothSolver:  Solving for Uz, Initial residual = 0.00961403, Final residual = 0.000398663, No Iterations 2
GAMG:  Solving for p, Initial residual = 0.00968438, Final residual = 0.00025184, No Iterations 2
time step continuity errors : sum local = 0.00031799, global = -3.73581e-05, cumulative = 0.0307139
smoothSolver:  Solving for epsilon, Initial residual = 0.00461493, Final residual = 0.000214632, No Iterations 2
bounding epsilon, min: -0.317623 max: 1976.32 average: 32.4751
smoothSolver:  Solving for k, Initial residual = 0.00286111, Final residual = 0.000144899, No Iterations 2
bounding k, min: -0.154459 max: 122.264 average: 5.87072
ExecutionTime = 11.81 s  ClockTime = 13 s

Time = 132

smoothSolver:  Solving for Ux, Initial residual = 0.0052868, Final residual = 0.000361431, No Iterations 2
smoothSolver:  Solving for Uy, Initial residual = 0.00590436, Final residual = 0.000261596, No Iterations 2
smoothSolver:  Solving for Uz, Initial residual = 0.00946585, Final residual = 0.000401202, No Iterations 2
GAMG:  Solving for p, Initial residual = 0.00958457, Final residual = 0.000215131, No Iterations 2
time step continuity errors : sum local = 0.000268926, global = 3.72168e-05, cumulative = 0.0307511
smoothSolver:  Solving for epsilon, Initial residual = 0.00460495, Final residual = 0.000216338, No Iterations 2
bounding epsilon, min: -0.325719 max: 1973.96 average: 32.3242
smoothSolver:  Solving for k, Initial residual = 0.00278171, Final residual = 0.00014464, No Iterations 2
bounding k, min: -0.142063 max: 122.144 average: 5.8756
ExecutionTime = 12.64 s  ClockTime = 13 s

Time = 133

smoothSolver:  Solving for Ux, Initial residual = 0.00526812, Final residual = 0.000359048, No Iterations 2
smoothSolver:  Solving for Uy, Initial residual = 0.00587235, Final residual = 0.00026055, No Iterations 2
smoothSolver:  Solving for Uz, Initial residual = 0.00944086, Final residual = 0.000397514, No Iterations 2
GAMG:  Solving for p, Initial residual = 0.00955498, Final residual = 0.000216892, No Iterations 2
time step continuity errors : sum local = 0.00026858, global = 5.65573e-05, cumulative = 0.0308076
smoothSolver:  Solving for epsilon, Initial residual = 0.00455586, Final residual = 0.00021306, No Iterations 2
bounding epsilon, min: -0.31199 max: 1971.07 average: 32.1679
smoothSolver:  Solving for k, Initial residual = 0.0028038, Final residual = 0.000141896, No Iterations 2
bounding k, min: -0.154388 max: 122.024 average: 5.88013
ExecutionTime = 13.5 s  ClockTime = 14 s

Time = 134

smoothSolver:  Solving for Ux, Initial residual = 0.00524021, Final residual = 0.000359217, No Iterations 2
smoothSolver:  Solving for Uy, Initial residual = 0.00580061, Final residual = 0.000264055, No Iterations 2
smoothSolver:  Solving for Uz, Initial residual = 0.00934516, Final residual = 0.000403032, No Iterations 2
GAMG:  Solving for p, Initial residual = 0.00947944, Final residual = 0.000219595, No Iterations 2
time step continuity errors : sum local = 0.000269196, global = 5.47632e-05, cumulative = 0.0308624
smoothSolver:  Solving for epsilon, Initial residual = 0.00455274, Final residual = 0.000213214, No Iterations 2
bounding epsilon, min: -0.299062 max: 1968.61 average: 32.0174
smoothSolver:  Solving for k, Initial residual = 0.00275534, Final residual = 0.000141915, No Iterations 2
bounding k, min: -0.152178 max: 121.901 average: 5.8845
ExecutionTime = 14.36 s  ClockTime = 15 s

Time = 135

smoothSolver:  Solving for Ux, Initial residual = 0.00520462, Final residual = 0.000358112, No Iterations 2
smoothSolver:  Solving for Uy, Initial residual = 0.00575072, Final residual = 0.000262133, No Iterations 2
smoothSolver:  Solving for Uz, Initial residual = 0.00935552, Final residual = 0.000399169, No Iterations 2
GAMG:  Solving for p, Initial residual = 0.00943322, Final residual = 0.000208318, No Iterations 2
time step continuity errors : sum local = 0.000252935, global = 4.82384e-05, cumulative = 0.0309106
smoothSolver:  Solving for epsilon, Initial residual = 0.00446803, Final residual = 0.00020989, No Iterations 2
bounding epsilon, min: -0.328497 max: 1965.71 average: 31.863
smoothSolver:  Solving for k, Initial residual = 0.00278007, Final residual = 0.000139866, No Iterations 2
bounding k, min: -0.152949 max: 121.779 average: 5.88848
ExecutionTime = 15.19 s  ClockTime = 16 s

Time = 136

smoothSolver:  Solving for Ux, Initial residual = 0.00517583, Final residual = 0.00035837, No Iterations 2
smoothSolver:  Solving for Uy, Initial residual = 0.00568551, Final residual = 0.000264991, No Iterations 2
smoothSolver:  Solving for Uz, Initial residual = 0.0092441, Final residual = 0.000403506, No Iterations 2
GAMG:  Solving for p, Initial residual = 0.00934328, Final residual = 0.000196429, No Iterations 2
time step continuity errors : sum local = 0.000236132, global = -1.99641e-05, cumulative = 0.0308907
smoothSolver:  Solving for epsilon, Initial residual = 0.00447716, Final residual = 0.000210628, No Iterations 2
bounding epsilon, min: -0.294309 max: 1963.16 average: 31.7131
smoothSolver:  Solving for k, Initial residual = 0.00274266, Final residual = 0.000139677, No Iterations 2
bounding k, min: -0.152255 max: 121.653 average: 5.89233
ExecutionTime = 16.02 s  ClockTime = 17 s

Time = 137

smoothSolver:  Solving for Ux, Initial residual = 0.00513877, Final residual = 0.000357511, No Iterations 2
smoothSolver:  Solving for Uy, Initial residual = 0.00567067, Final residual = 0.000264057, No Iterations 2
smoothSolver:  Solving for Uz, Initial residual = 0.00928116, Final residual = 0.000397293, No Iterations 2
GAMG:  Solving for p, Initial residual = 0.00929106, Final residual = 0.000226209, No Iterations 2
time step continuity errors : sum local = 0.000269457, global = 1.63659e-06, cumulative = 0.0308923
smoothSolver:  Solving for epsilon, Initial residual = 0.00442279, Final residual = 0.000207979, No Iterations 2
bounding epsilon, min: -0.33669 max: 1960.1 average: 31.5577
smoothSolver:  Solving for k, Initial residual = 0.00277563, Final residual = 0.000137257, No Iterations 2
bounding k, min: -0.154447 max: 121.53 average: 5.89599
ExecutionTime = 16.84 s  ClockTime = 18 s

Time = 138

smoothSolver:  Solving for Ux, Initial residual = 0.00514414, Final residual = 0.000357942, No Iterations 2
smoothSolver:  Solving for Uy, Initial residual = 0.00561973, Final residual = 0.000264124, No Iterations 2
smoothSolver:  Solving for Uz, Initial residual = 0.00918491, Final residual = 0.000402377, No Iterations 2
GAMG:  Solving for p, Initial residual = 0.00924053, Final residual = 0.000205392, No Iterations 2
time step continuity errors : sum local = 0.000242255, global = 1.56219e-05, cumulative = 0.0309079
smoothSolver:  Solving for epsilon, Initial residual = 0.00442538, Final residual = 0.000207193, No Iterations 2
bounding epsilon, min: -0.307464 max: 1957.51 average: 31.4092
smoothSolver:  Solving for k, Initial residual = 0.00272284, Final residual = 0.000137468, No Iterations 2
bounding k, min: -0.154253 max: 121.405 average: 5.89965
ExecutionTime = 17.67 s  ClockTime = 19 s

Time = 139

smoothSolver:  Solving for Ux, Initial residual = 0.00513594, Final residual = 0.000356866, No Iterations 2
smoothSolver:  Solving for Uy, Initial residual = 0.00560534, Final residual = 0.0002638, No Iterations 2
smoothSolver:  Solving for Uz, Initial residual = 0.00923436, Final residual = 0.000397427, No Iterations 2
GAMG:  Solving for p, Initial residual = 0.00922466, Final residual = 0.000222425, No Iterations 2
time step continuity errors : sum local = 0.000260074, global = -2.60856e-05, cumulative = 0.0308819
smoothSolver:  Solving for epsilon, Initial residual = 0.00434494, Final residual = 0.000204097, No Iterations 2
bounding epsilon, min: -0.3437 max: 1954.53 average: 31.2567
smoothSolver:  Solving for k, Initial residual = 0.00275588, Final residual = 0.000133589, No Iterations 2
bounding k, min: -0.154832 max: 121.282 average: 5.90306
ExecutionTime = 18.5 s  ClockTime = 19 s

Time = 140

smoothSolver:  Solving for Ux, Initial residual = 0.00511909, Final residual = 0.000357344, No Iterations 2
smoothSolver:  Solving for Uy, Initial residual = 0.00557464, Final residual = 0.000267784, No Iterations 2
smoothSolver:  Solving for Uz, Initial residual = 0.00916144, Final residual = 0.000403956, No Iterations 2
GAMG:  Solving for p, Initial residual = 0.00913577, Final residual = 0.000200398, No Iterations 2
time step continuity errors : sum local = 0.000231998, global = 2.26218e-05, cumulative = 0.0309045
smoothSolver:  Solving for epsilon, Initial residual = 0.00436107, Final residual = 0.000203841, No Iterations 2
bounding epsilon, min: -0.298192 max: 1951.94 average: 31.1098
smoothSolver:  Solving for k, Initial residual = 0.00267899, Final residual = 0.000134602, No Iterations 2
bounding k, min: -0.156036 max: 121.16 average: 5.9063
ExecutionTime = 20.72 s  ClockTime = 22 s

Time = 141

smoothSolver:  Solving for Ux, Initial residual = 0.00511963, Final residual = 0.000356174, No Iterations 2
smoothSolver:  Solving for Uy, Initial residual = 0.00557364, Final residual = 0.000266601, No Iterations 2
smoothSolver:  Solving for Uz, Initial residual = 0.00917025, Final residual = 0.000398896, No Iterations 2
GAMG:  Solving for p, Initial residual = 0.00915965, Final residual = 0.000256982, No Iterations 2
time step continuity errors : sum local = 0.000294982, global = -3.2522e-05, cumulative = 0.030872
smoothSolver:  Solving for epsilon, Initial residual = 0.00428975, Final residual = 0.000201123, No Iterations 2
bounding epsilon, min: -0.346942 max: 1948.86 average: 30.959
smoothSolver:  Solving for k, Initial residual = 0.00271593, Final residual = 0.00013123, No Iterations 2
bounding k, min: -0.154674 max: 121.041 average: 5.90909
ExecutionTime = 21.57 s  ClockTime = 23 s

Time = 142

smoothSolver:  Solving for Ux, Initial residual = 0.00508671, Final residual = 0.000356468, No Iterations 2
smoothSolver:  Solving for Uy, Initial residual = 0.00549434, Final residual = 0.000268022, No Iterations 2
smoothSolver:  Solving for Uz, Initial residual = 0.00908623, Final residual = 0.000405065, No Iterations 2
GAMG:  Solving for p, Initial residual = 0.0090352, Final residual = 0.000201338, No Iterations 2
time step continuity errors : sum local = 0.000228914, global = 4.10803e-05, cumulative = 0.030913
smoothSolver:  Solving for epsilon, Initial residual = 0.0042822, Final residual = 0.00020004, No Iterations 2
bounding epsilon, min: -0.302552 max: 1946.3 average: 30.8129
smoothSolver:  Solving for k, Initial residual = 0.00265518, Final residual = 0.000131471, No Iterations 2
bounding k, min: -0.159943 max: 120.923 average: 5.91178
ExecutionTime = 22.56 s  ClockTime = 24 s

Time = 143

smoothSolver:  Solving for Ux, Initial residual = 0.00508717, Final residual = 0.000355735, No Iterations 2
smoothSolver:  Solving for Uy, Initial residual = 0.00551815, Final residual = 0.000268003, No Iterations 2
smoothSolver:  Solving for Uz, Initial residual = 0.00910976, Final residual = 0.000400559, No Iterations 2
GAMG:  Solving for p, Initial residual = 0.00908671, Final residual = 0.000206975, No Iterations 2
time step continuity errors : sum local = 0.000233366, global = 5.12189e-05, cumulative = 0.0309643
smoothSolver:  Solving for epsilon, Initial residual = 0.0042018, Final residual = 0.000197271, No Iterations 2
bounding epsilon, min: -0.345554 max: 1943.35 average: 30.6638
smoothSolver:  Solving for k, Initial residual = 0.00270685, Final residual = 0.000127348, No Iterations 2
bounding k, min: -0.151883 max: 120.81 average: 5.91395
ExecutionTime = 23.4 s  ClockTime = 25 s

Time = 144

smoothSolver:  Solving for Ux, Initial residual = 0.00528397, Final residual = 0.000362658, No Iterations 2
smoothSolver:  Solving for Uy, Initial residual = 0.00587626, Final residual = 0.000295065, No Iterations 2
smoothSolver:  Solving for Uz, Initial residual = 0.00989111, Final residual = 0.00043622, No Iterations 2
GAMG:  Solving for p, Initial residual = 0.00952731, Final residual = 0.000205013, No Iterations 2
time step continuity errors : sum local = 0.000228889, global = 4.5552e-05, cumulative = 0.0310098
smoothSolver:  Solving for epsilon, Initial residual = 0.00421463, Final residual = 0.000196525, No Iterations 2
bounding epsilon, min: -0.285118 max: 1940.85 average: 30.5181
smoothSolver:  Solving for k, Initial residual = 0.00265327, Final residual = 0.00012878, No Iterations 2
bounding k, min: -0.159972 max: 120.699 average: 5.91582
ExecutionTime = 24.22 s  ClockTime = 26 s

Time = 145

smoothSolver:  Solving for Ux, Initial residual = 0.00511043, Final residual = 0.000356668, No Iterations 2
smoothSolver:  Solving for Uy, Initial residual = 0.00608112, Final residual = 0.00026771, No Iterations 2
smoothSolver:  Solving for Uz, Initial residual = 0.00979919, Final residual = 0.000395399, No Iterations 2
GAMG:  Solving for p, Initial residual = 0.00899803, Final residual = 0.000193186, No Iterations 2
time step continuity errors : sum local = 0.000214183, global = 4.41729e-05, cumulative = 0.031054
smoothSolver:  Solving for epsilon, Initial residual = 0.00414169, Final residual = 0.000194558, No Iterations 2
bounding epsilon, min: -0.353954 max: 1937.91 average: 30.369
smoothSolver:  Solving for k, Initial residual = 0.00268888, Final residual = 0.000125777, No Iterations 2
bounding k, min: -0.146785 max: 120.592 average: 5.91725
ExecutionTime = 25.05 s  ClockTime = 27 s

Time = 146

smoothSolver:  Solving for Ux, Initial residual = 0.00504715, Final residual = 0.000356843, No Iterations 2
smoothSolver:  Solving for Uy, Initial residual = 0.00552129, Final residual = 0.000265054, No Iterations 2
smoothSolver:  Solving for Uz, Initial residual = 0.00914099, Final residual = 0.000398669, No Iterations 2
GAMG:  Solving for p, Initial residual = 0.00880877, Final residual = 0.000173513, No Iterations 2
time step continuity errors : sum local = 0.000190659, global = -1.58789e-05, cumulative = 0.0310381
smoothSolver:  Solving for epsilon, Initial residual = 0.00414444, Final residual = 0.000193191, No Iterations 2
bounding epsilon, min: -0.291321 max: 1935.54 average: 30.224
smoothSolver:  Solving for k, Initial residual = 0.00263954, Final residual = 0.000125043, No Iterations 2
bounding k, min: -0.15307 max: 120.489 average: 5.91839
ExecutionTime = 25.87 s  ClockTime = 28 s

Time = 147

smoothSolver:  Solving for Ux, Initial residual = 0.00498311, Final residual = 0.000356425, No Iterations 2
smoothSolver:  Solving for Uy, Initial residual = 0.00542473, Final residual = 0.000266839, No Iterations 2
smoothSolver:  Solving for Uz, Initial residual = 0.00900375, Final residual = 0.00039502, No Iterations 2
GAMG:  Solving for p, Initial residual = 0.00876339, Final residual = 0.000210566, No Iterations 2
time step continuity errors : sum local = 0.000229492, global = 3.79237e-06, cumulative = 0.0310419
smoothSolver:  Solving for epsilon, Initial residual = 0.0040525, Final residual = 0.000191278, No Iterations 2
bounding epsilon, min: -0.347199 max: 1932.84 average: 30.0762
smoothSolver:  Solving for k, Initial residual = 0.00267483, Final residual = 0.000122346, No Iterations 2
bounding k, min: -0.147737 max: 120.388 average: 5.91926
ExecutionTime = 26.69 s  ClockTime = 28 s

Time = 148

smoothSolver:  Solving for Ux, Initial residual = 0.00497383, Final residual = 0.000357123, No Iterations 2
smoothSolver:  Solving for Uy, Initial residual = 0.00526362, Final residual = 0.000263701, No Iterations 2
smoothSolver:  Solving for Uz, Initial residual = 0.00879255, Final residual = 0.00039883, No Iterations 2
GAMG:  Solving for p, Initial residual = 0.00864356, Final residual = 0.000186452, No Iterations 2
time step continuity errors : sum local = 0.000201436, global = 1.91481e-05, cumulative = 0.031061
smoothSolver:  Solving for epsilon, Initial residual = 0.00407665, Final residual = 0.000188177, No Iterations 2
bounding epsilon, min: -0.304838 max: 1930.62 average: 29.932
smoothSolver:  Solving for k, Initial residual = 0.00263341, Final residual = 0.000122532, No Iterations 2
bounding k, min: -0.143191 max: 120.291 average: 5.91974
ExecutionTime = 27.52 s  ClockTime = 29 s

Time = 149

smoothSolver:  Solving for Ux, Initial residual = 0.00495899, Final residual = 0.000356759, No Iterations 2
smoothSolver:  Solving for Uy, Initial residual = 0.00523879, Final residual = 0.000262901, No Iterations 2
smoothSolver:  Solving for Uz, Initial residual = 0.00873715, Final residual = 0.000392631, No Iterations 2
GAMG:  Solving for p, Initial residual = 0.00860425, Final residual = 0.00024403, No Iterations 2
time step continuity errors : sum local = 0.000261684, global = -2.81172e-05, cumulative = 0.0310329
smoothSolver:  Solving for epsilon, Initial residual = 0.00397157, Final residual = 0.000189138, No Iterations 2
bounding epsilon, min: -0.336618 max: 1927.95 average: 29.7846
smoothSolver:  Solving for k, Initial residual = 0.00267565, Final residual = 0.000119376, No Iterations 2
bounding k, min: -0.146769 max: 120.196 average: 5.91994
ExecutionTime = 28.34 s  ClockTime = 30 s

Time = 150

smoothSolver:  Solving for Ux, Initial residual = 0.00493683, Final residual = 0.000357795, No Iterations 2
smoothSolver:  Solving for Uy, Initial residual = 0.00513519, Final residual = 0.00026364, No Iterations 2
smoothSolver:  Solving for Uz, Initial residual = 0.0086318, Final residual = 0.000397002, No Iterations 2
GAMG:  Solving for p, Initial residual = 0.00846974, Final residual = 0.000197639, No Iterations 2
time step continuity errors : sum local = 0.000210054, global = -2.88829e-05, cumulative = 0.031004
smoothSolver:  Solving for epsilon, Initial residual = 0.00399073, Final residual = 0.000186224, No Iterations 2
bounding epsilon, min: -0.286371 max: 1925.85 average: 29.6408
smoothSolver:  Solving for k, Initial residual = 0.00262858, Final residual = 0.000120826, No Iterations 2
bounding k, min: -0.135828 max: 120.102 average: 5.92003
ExecutionTime = 29.16 s  ClockTime = 31 s

Time = 151

smoothSolver:  Solving for Ux, Initial residual = 0.00491552, Final residual = 0.000357598, No Iterations 2
smoothSolver:  Solving for Uy, Initial residual = 0.0051358, Final residual = 0.000266368, No Iterations 2
smoothSolver:  Solving for Uz, Initial residual = 0.0085984, Final residual = 0.000393864, No Iterations 2
GAMG:  Solving for p, Initial residual = 0.00842649, Final residual = 0.000177453, No Iterations 2
time step continuity errors : sum local = 0.000187181, global = 1.99835e-05, cumulative = 0.031024
smoothSolver:  Solving for epsilon, Initial residual = 0.0038968, Final residual = 0.000186084, No Iterations 2
bounding epsilon, min: -0.3162 max: 1923.39 average: 29.4953
smoothSolver:  Solving for k, Initial residual = 0.00266791, Final residual = 0.000117573, No Iterations 2
bounding k, min: -0.145841 max: 120.01 average: 5.91988
ExecutionTime = 29.99 s  ClockTime = 32 s

Time = 152

smoothSolver:  Solving for Ux, Initial residual = 0.00492555, Final residual = 0.000358886, No Iterations 2
smoothSolver:  Solving for Uy, Initial residual = 0.00506951, Final residual = 0.000264793, No Iterations 2
smoothSolver:  Solving for Uz, Initial residual = 0.00847718, Final residual = 0.000395845, No Iterations 2
GAMG:  Solving for p, Initial residual = 0.00834286, Final residual = 0.000184615, No Iterations 2
time step continuity errors : sum local = 0.000193091, global = 4.50285e-05, cumulative = 0.0310691
smoothSolver:  Solving for epsilon, Initial residual = 0.00391772, Final residual = 0.00018461, No Iterations 2
bounding epsilon, min: -0.293039 max: 1921.38 average: 29.3521
smoothSolver:  Solving for k, Initial residual = 0.00261821, Final residual = 0.000117752, No Iterations 2
bounding k, min: -0.125568 max: 119.918 average: 5.91952
ExecutionTime = 30.87 s  ClockTime = 33 s

Time = 153

smoothSolver:  Solving for Ux, Initial residual = 0.00491849, Final residual = 0.00035973, No Iterations 2
smoothSolver:  Solving for Uy, Initial residual = 0.00506161, Final residual = 0.000265289, No Iterations 2
smoothSolver:  Solving for Uz, Initial residual = 0.00846162, Final residual = 0.000392253, No Iterations 2
GAMG:  Solving for p, Initial residual = 0.00832999, Final residual = 0.000189016, No Iterations 2
time step continuity errors : sum local = 0.000196239, global = 4.5176e-05, cumulative = 0.0311142
smoothSolver:  Solving for epsilon, Initial residual = 0.00384613, Final residual = 0.000184148, No Iterations 2
bounding epsilon, min: -0.28381 max: 1918.89 average: 29.2081
smoothSolver:  Solving for k, Initial residual = 0.0026259, Final residual = 0.000115492, No Iterations 2
bounding k, min: -0.132924 max: 119.827 average: 5.919
ExecutionTime = 31.7 s  ClockTime = 34 s

Time = 154

smoothSolver:  Solving for Ux, Initial residual = 0.0048969, Final residual = 0.000360601, No Iterations 2
smoothSolver:  Solving for Uy, Initial residual = 0.00501131, Final residual = 0.000264641, No Iterations 2
smoothSolver:  Solving for Uz, Initial residual = 0.00837391, Final residual = 0.000394357, No Iterations 2
GAMG:  Solving for p, Initial residual = 0.00819897, Final residual = 0.000177318, No Iterations 2
time step continuity errors : sum local = 0.000182524, global = 3.9895e-05, cumulative = 0.0311541
smoothSolver:  Solving for epsilon, Initial residual = 0.00384219, Final residual = 0.000183166, No Iterations 2
bounding epsilon, min: -0.26341 max: 1916.91 average: 29.0664
smoothSolver:  Solving for k, Initial residual = 0.00258185, Final residual = 0.00011544, No Iterations 2
bounding k, min: -0.115809 max: 119.735 average: 5.91809
ExecutionTime = 32.54 s  ClockTime = 34 s

Time = 155

smoothSolver:  Solving for Ux, Initial residual = 0.00487716, Final residual = 0.000361664, No Iterations 2
smoothSolver:  Solving for Uy, Initial residual = 0.00497011, Final residual = 0.000264462, No Iterations 2
smoothSolver:  Solving for Uz, Initial residual = 0.00829403, Final residual = 0.000390046, No Iterations 2
GAMG:  Solving for p, Initial residual = 0.00814109, Final residual = 0.000168893, No Iterations 2
time step continuity errors : sum local = 0.000172634, global = -1.76758e-05, cumulative = 0.0311364
smoothSolver:  Solving for epsilon, Initial residual = 0.00378987, Final residual = 0.000181964, No Iterations 2
bounding epsilon, min: -0.27114 max: 1914.52 average: 28.9244
smoothSolver:  Solving for k, Initial residual = 0.00259525, Final residual = 0.000112506, No Iterations 2
bounding k, min: -0.118549 max: 119.644 average: 5.91721
ExecutionTime = 33.37 s  ClockTime = 35 s

Time = 156

smoothSolver:  Solving for Ux, Initial residual = 0.0048496, Final residual = 0.000362172, No Iterations 2
smoothSolver:  Solving for Uy, Initial residual = 0.00494491, Final residual = 0.000265046, No Iterations 2
smoothSolver:  Solving for Uz, Initial residual = 0.00823699, Final residual = 0.000394925, No Iterations 2
GAMG:  Solving for p, Initial residual = 0.00805995, Final residual = 0.000196083, No Iterations 2
time step continuity errors : sum local = 0.000198685, global = 3.21874e-06, cumulative = 0.0311397
smoothSolver:  Solving for epsilon, Initial residual = 0.00377777, Final residual = 0.00018123, No Iterations 2
bounding epsilon, min: -0.23038 max: 1912.5 average: 28.7833
smoothSolver:  Solving for k, Initial residual = 0.00254897, Final residual = 0.000114068, No Iterations 2
bounding k, min: -0.101097 max: 119.552 average: 5.91611
ExecutionTime = 34.19 s  ClockTime = 36 s

Time = 157

smoothSolver:  Solving for Ux, Initial residual = 0.0048607, Final residual = 0.00036431, No Iterations 2
smoothSolver:  Solving for Uy, Initial residual = 0.00487019, Final residual = 0.000263089, No Iterations 2
smoothSolver:  Solving for Uz, Initial residual = 0.00815892, Final residual = 0.000392309, No Iterations 2
GAMG:  Solving for p, Initial residual = 0.00801955, Final residual = 0.000160208, No Iterations 2
time step continuity errors : sum local = 0.000161186, global = -5.97181e-06, cumulative = 0.0311337
smoothSolver:  Solving for epsilon, Initial residual = 0.00374454, Final residual = 0.000180119, No Iterations 2
bounding epsilon, min: -0.248486 max: 1909.97 average: 28.6427
smoothSolver:  Solving for k, Initial residual = 0.00258495, Final residual = 0.000110961, No Iterations 2
bounding k, min: -0.109606 max: 119.459 average: 5.91497
ExecutionTime = 35.01 s  ClockTime = 37 s

Time = 158

smoothSolver:  Solving for Ux, Initial residual = 0.00484677, Final residual = 0.000364781, No Iterations 2
smoothSolver:  Solving for Uy, Initial residual = 0.0048673, Final residual = 0.000263999, No Iterations 2
smoothSolver:  Solving for Uz, Initial residual = 0.00812599, Final residual = 0.000394183, No Iterations 2
GAMG:  Solving for p, Initial residual = 0.00792575, Final residual = 0.000167303, No Iterations 2
time step continuity errors : sum local = 0.000166993, global = 2.19881e-05, cumulative = 0.0311557
smoothSolver:  Solving for epsilon, Initial residual = 0.00371734, Final residual = 0.000179663, No Iterations 2
bounding epsilon, min: -0.182087 max: 1907.91 average: 28.5027
smoothSolver:  Solving for k, Initial residual = 0.00253699, Final residual = 0.000111609, No Iterations 2
bounding k, min: -0.0828356 max: 119.366 average: 5.91361
ExecutionTime = 35.84 s  ClockTime = 38 s

Time = 159

smoothSolver:  Solving for Ux, Initial residual = 0.00484833, Final residual = 0.000367078, No Iterations 2
smoothSolver:  Solving for Uy, Initial residual = 0.00480537, Final residual = 0.000265252, No Iterations 2
smoothSolver:  Solving for Uz, Initial residual = 0.00806613, Final residual = 0.000394389, No Iterations 2
GAMG:  Solving for p, Initial residual = 0.00789946, Final residual = 0.000175106, No Iterations 2
time step continuity errors : sum local = 0.000173496, global = 4.0895e-05, cumulative = 0.0311966
smoothSolver:  Solving for epsilon, Initial residual = 0.0036938, Final residual = 0.000177378, No Iterations 2
bounding epsilon, min: -0.222581 max: 1905.43 average: 28.3641
smoothSolver:  Solving for k, Initial residual = 0.00255943, Final residual = 0.000109093, No Iterations 2
bounding k, min: -0.0941517 max: 119.272 average: 5.91211
ExecutionTime = 36.67 s  ClockTime = 39 s

Time = 160

smoothSolver:  Solving for Ux, Initial residual = 0.00483544, Final residual = 0.000367345, No Iterations 2
smoothSolver:  Solving for Uy, Initial residual = 0.0047995, Final residual = 0.000265932, No Iterations 2
smoothSolver:  Solving for Uz, Initial residual = 0.00803889, Final residual = 0.000396279, No Iterations 2
GAMG:  Solving for p, Initial residual = 0.00783149, Final residual = 0.000182884, No Iterations 2
time step continuity errors : sum local = 0.000179816, global = 4.31031e-05, cumulative = 0.0312397
smoothSolver:  Solving for epsilon, Initial residual = 0.00366279, Final residual = 0.000176982, No Iterations 2
bounding epsilon, min: -0.152881 max: 1903.31 average: 28.2254
smoothSolver:  Solving for k, Initial residual = 0.00250811, Final residual = 0.000109172, No Iterations 2
bounding k, min: -0.0518119 max: 119.179 average: 5.9101
ExecutionTime = 38.82 s  ClockTime = 41 s

Time = 161

smoothSolver:  Solving for Ux, Initial residual = 0.00481201, Final residual = 0.000368595, No Iterations 2
smoothSolver:  Solving for Uy, Initial residual = 0.00473903, Final residual = 0.000265585, No Iterations 2
smoothSolver:  Solving for Uz, Initial residual = 0.00796611, Final residual = 0.000393964, No Iterations 2
GAMG:  Solving for p, Initial residual = 0.00774933, Final residual = 0.000175779, No Iterations 2
time step continuity errors : sum local = 0.000171598, global = 3.9763e-05, cumulative = 0.0312794
smoothSolver:  Solving for epsilon, Initial residual = 0.00363218, Final residual = 0.000176077, No Iterations 2
bounding epsilon, min: -0.166532 max: 1900.69 average: 28.0876
smoothSolver:  Solving for k, Initial residual = 0.00252539, Final residual = 0.000106978, No Iterations 2
bounding k, min: -0.0573941 max: 119.084 average: 5.90809
ExecutionTime = 39.92 s  ClockTime = 43 s

Time = 162

smoothSolver:  Solving for Ux, Initial residual = 0.00478769, Final residual = 0.000368616, No Iterations 2
smoothSolver:  Solving for Uy, Initial residual = 0.00473038, Final residual = 0.000265465, No Iterations 2
smoothSolver:  Solving for Uz, Initial residual = 0.00793746, Final residual = 0.00039557, No Iterations 2
GAMG:  Solving for p, Initial residual = 0.0076673, Final residual = 0.000167258, No Iterations 2
time step continuity errors : sum local = 0.000162022, global = 3.56802e-05, cumulative = 0.0313151
smoothSolver:  Solving for epsilon, Initial residual = 0.00359992, Final residual = 0.000175781, No Iterations 2
bounding epsilon, min: -0.120092 max: 1898.56 average: 27.95
smoothSolver:  Solving for k, Initial residual = 0.0024814, Final residual = 0.000108233, No Iterations 2
bounding k, min: -0.024276 max: 118.99 average: 5.9057
ExecutionTime = 40.76 s  ClockTime = 43 s

Time = 163

smoothSolver:  Solving for Ux, Initial residual = 0.00477475, Final residual = 0.000370433, No Iterations 2
smoothSolver:  Solving for Uy, Initial residual = 0.0046682, Final residual = 0.000265964, No Iterations 2
smoothSolver:  Solving for Uz, Initial residual = 0.00783969, Final residual = 0.000394621, No Iterations 2
GAMG:  Solving for p, Initial residual = 0.00759624, Final residual = 0.000170968, No Iterations 2
time step continuity errors : sum local = 0.000164391, global = -1.90134e-05, cumulative = 0.0312961
smoothSolver:  Solving for epsilon, Initial residual = 0.00357623, Final residual = 0.000174105, No Iterations 2
bounding epsilon, min: -0.118144 max: 1896.06 average: 27.814
smoothSolver:  Solving for k, Initial residual = 0.00251411, Final residual = 0.000105637, No Iterations 2
bounding k, min: -0.0167129 max: 118.896 average: 5.90326
ExecutionTime = 41.59 s  ClockTime = 44 s

Time = 164

smoothSolver:  Solving for Ux, Initial residual = 0.00474682, Final residual = 0.00037024, No Iterations 2
smoothSolver:  Solving for Uy, Initial residual = 0.0046759, Final residual = 0.00026608, No Iterations 2
smoothSolver:  Solving for Uz, Initial residual = 0.00781765, Final residual = 0.000395624, No Iterations 2
GAMG:  Solving for p, Initial residual = 0.00753018, Final residual = 0.000186634, No Iterations 2
time step continuity errors : sum local = 0.000178111, global = 4.16906e-06, cumulative = 0.0313003
smoothSolver:  Solving for epsilon, Initial residual = 0.00355199, Final residual = 0.000174284, No Iterations 2
bounding epsilon, min: -0.0321094 max: 1893.94 average: 27.6781
smoothSolver:  Solving for k, Initial residual = 0.00248976, Final residual = 0.000106437, No Iterations 2
ExecutionTime = 42.52 s  ClockTime = 45 s

Time = 165

smoothSolver:  Solving for Ux, Initial residual = 0.00474524, Final residual = 0.000372105, No Iterations 2
smoothSolver:  Solving for Uy, Initial residual = 0.0046137, Final residual = 0.00026291, No Iterations 2
smoothSolver:  Solving for Uz, Initial residual = 0.00771226, Final residual = 0.000391931, No Iterations 2
GAMG:  Solving for p, Initial residual = 0.00745871, Final residual = 0.000178898, No Iterations 2
time step continuity errors : sum local = 0.00016958, global = -1.31266e-05, cumulative = 0.0312872
smoothSolver:  Solving for epsilon, Initial residual = 0.00353845, Final residual = 0.000173101, No Iterations 2
smoothSolver:  Solving for k, Initial residual = 0.00252327, Final residual = 0.0001041, No Iterations 2
ExecutionTime = 43.39 s  ClockTime = 46 s

Time = 166

smoothSolver:  Solving for Ux, Initial residual = 0.00473572, Final residual = 0.000372536, No Iterations 2
smoothSolver:  Solving for Uy, Initial residual = 0.00460602, Final residual = 0.000264998, No Iterations 2
smoothSolver:  Solving for Uz, Initial residual = 0.00769184, Final residual = 0.000393989, No Iterations 2
GAMG:  Solving for p, Initial residual = 0.00741157, Final residual = 0.000161864, No Iterations 2
time step continuity errors : sum local = 0.00015225, global = 2.23491e-05, cumulative = 0.0313095
smoothSolver:  Solving for epsilon, Initial residual = 0.00350709, Final residual = 0.000172952, No Iterations 2
smoothSolver:  Solving for k, Initial residual = 0.00247751, Final residual = 0.000105278, No Iterations 2
ExecutionTime = 44.21 s  ClockTime = 47 s

Time = 167

smoothSolver:  Solving for Ux, Initial residual = 0.00473503, Final residual = 0.000374787, No Iterations 2
smoothSolver:  Solving for Uy, Initial residual = 0.00455094, Final residual = 0.000266164, No Iterations 2
smoothSolver:  Solving for Uz, Initial residual = 0.0075877, Final residual = 0.000390177, No Iterations 2
GAMG:  Solving for p, Initial residual = 0.00732921, Final residual = 0.000171485, No Iterations 2
time step continuity errors : sum local = 0.000160205, global = 3.78982e-05, cumulative = 0.0313474
smoothSolver:  Solving for epsilon, Initial residual = 0.00348968, Final residual = 0.000170713, No Iterations 2
smoothSolver:  Solving for k, Initial residual = 0.00251047, Final residual = 0.000101615, No Iterations 2
ExecutionTime = 45.06 s  ClockTime = 48 s

Time = 168

smoothSolver:  Solving for Ux, Initial residual = 0.00471621, Final residual = 0.000374827, No Iterations 2
smoothSolver:  Solving for Uy, Initial residual = 0.00456233, Final residual = 0.000266313, No Iterations 2
smoothSolver:  Solving for Uz, Initial residual = 0.00755582, Final residual = 0.000391984, No Iterations 2
GAMG:  Solving for p, Initial residual = 0.00727751, Final residual = 0.000178312, No Iterations 2
time step continuity errors : sum local = 0.000165404, global = 4.08155e-05, cumulative = 0.0313882
smoothSolver:  Solving for epsilon, Initial residual = 0.00345217, Final residual = 0.00017162, No Iterations 2
smoothSolver:  Solving for k, Initial residual = 0.00244959, Final residual = 0.000104918, No Iterations 2
ExecutionTime = 45.9 s  ClockTime = 49 s

Time = 169

smoothSolver:  Solving for Ux, Initial residual = 0.00469524, Final residual = 0.000376505, No Iterations 2
smoothSolver:  Solving for Uy, Initial residual = 0.00450462, Final residual = 0.00026699, No Iterations 2
smoothSolver:  Solving for Uz, Initial residual = 0.00745159, Final residual = 0.000390322, No Iterations 2
GAMG:  Solving for p, Initial residual = 0.00721584, Final residual = 0.000170534, No Iterations 2
time step continuity errors : sum local = 0.000157054, global = 3.77464e-05, cumulative = 0.031426
smoothSolver:  Solving for epsilon, Initial residual = 0.00344662, Final residual = 0.000170047, No Iterations 2
smoothSolver:  Solving for k, Initial residual = 0.00248248, Final residual = 0.000100581, No Iterations 2
ExecutionTime = 46.72 s  ClockTime = 50 s

Time = 170

smoothSolver:  Solving for Ux, Initial residual = 0.00467243, Final residual = 0.000376333, No Iterations 2
smoothSolver:  Solving for Uy, Initial residual = 0.00449649, Final residual = 0.000266515, No Iterations 2
smoothSolver:  Solving for Uz, Initial residual = 0.00745259, Final residual = 0.000392379, No Iterations 2
GAMG:  Solving for p, Initial residual = 0.00715481, Final residual = 0.000156067, No Iterations 2
time step continuity errors : sum local = 0.000142685, global = -1.25125e-05, cumulative = 0.0314135
smoothSolver:  Solving for epsilon, Initial residual = 0.00339451, Final residual = 0.000170099, No Iterations 2
smoothSolver:  Solving for k, Initial residual = 0.00243448, Final residual = 0.000103142, No Iterations 2
ExecutionTime = 47.53 s  ClockTime = 50 s

Time = 171

smoothSolver:  Solving for Ux, Initial residual = 0.00464468, Final residual = 0.00037757, No Iterations 2
smoothSolver:  Solving for Uy, Initial residual = 0.00445826, Final residual = 0.000269092, No Iterations 2
smoothSolver:  Solving for Uz, Initial residual = 0.00740106, Final residual = 0.000391272, No Iterations 2
GAMG:  Solving for p, Initial residual = 0.00711811, Final residual = 0.000185438, No Iterations 2
time step continuity errors : sum local = 0.000168313, global = 5.10453e-06, cumulative = 0.0314186
smoothSolver:  Solving for epsilon, Initial residual = 0.00338266, Final residual = 0.000168099, No Iterations 2
smoothSolver:  Solving for k, Initial residual = 0.00247747, Final residual = 9.93327e-05, No Iterations 2
ExecutionTime = 48.33 s  ClockTime = 51 s

Time = 172

smoothSolver:  Solving for Ux, Initial residual = 0.00464211, Final residual = 0.000378779, No Iterations 2
smoothSolver:  Solving for Uy, Initial residual = 0.00441502, Final residual = 0.000263722, No Iterations 2
smoothSolver:  Solving for Uz, Initial residual = 0.00735182, Final residual = 0.000392549, No Iterations 2
GAMG:  Solving for p, Initial residual = 0.00707023, Final residual = 0.000181053, No Iterations 2
time step continuity errors : sum local = 0.000163116, global = -5.87181e-06, cumulative = 0.0314127
smoothSolver:  Solving for epsilon, Initial residual = 0.00335202, Final residual = 0.000168953, No Iterations 2
bounding epsilon, min: -0.0267393 max: 1875.68 average: 26.6186
smoothSolver:  Solving for k, Initial residual = 0.00240476, Final residual = 0.000102224, No Iterations 2
ExecutionTime = 49.15 s  ClockTime = 52 s

Time = 173

smoothSolver:  Solving for Ux, Initial residual = 0.0046349, Final residual = 0.000380727, No Iterations 2
smoothSolver:  Solving for Uy, Initial residual = 0.00437432, Final residual = 0.000264117, No Iterations 2
smoothSolver:  Solving for Uz, Initial residual = 0.00728622, Final residual = 0.000390616, No Iterations 2
GAMG:  Solving for p, Initial residual = 0.00701538, Final residual = 0.000154463, No Iterations 2
time step continuity errors : sum local = 0.000138218, global = -1.24992e-05, cumulative = 0.0314002
smoothSolver:  Solving for epsilon, Initial residual = 0.00333635, Final residual = 0.00016724, No Iterations 2
smoothSolver:  Solving for k, Initial residual = 0.00244344, Final residual = 9.78691e-05, No Iterations 2
ExecutionTime = 49.96 s  ClockTime = 53 s

Time = 174

smoothSolver:  Solving for Ux, Initial residual = 0.00461518, Final residual = 0.000381253, No Iterations 2
smoothSolver:  Solving for Uy, Initial residual = 0.00436272, Final residual = 0.000265995, No Iterations 2
smoothSolver:  Solving for Uz, Initial residual = 0.00728389, Final residual = 0.000391435, No Iterations 2
GAMG:  Solving for p, Initial residual = 0.00695213, Final residual = 0.000157723, No Iterations 2
time step continuity errors : sum local = 0.000140083, global = 1.68457e-05, cumulative = 0.031417
smoothSolver:  Solving for epsilon, Initial residual = 0.00330087, Final residual = 0.000167223, No Iterations 2
smoothSolver:  Solving for k, Initial residual = 0.00237413, Final residual = 0.000101668, No Iterations 2
ExecutionTime = 50.78 s  ClockTime = 54 s

Time = 175

smoothSolver:  Solving for Ux, Initial residual = 0.00461423, Final residual = 0.000383263, No Iterations 2
smoothSolver:  Solving for Uy, Initial residual = 0.00432007, Final residual = 0.000265851, No Iterations 2
smoothSolver:  Solving for Uz, Initial residual = 0.00722753, Final residual = 0.000392142, No Iterations 2
GAMG:  Solving for p, Initial residual = 0.00691526, Final residual = 0.0001679, No Iterations 2
time step continuity errors : sum local = 0.000148094, global = 3.532e-05, cumulative = 0.0314523
smoothSolver:  Solving for epsilon, Initial residual = 0.00328484, Final residual = 0.000165766, No Iterations 2
smoothSolver:  Solving for k, Initial residual = 0.00243443, Final residual = 9.73619e-05, No Iterations 2
ExecutionTime = 51.59 s  ClockTime = 54 s

Time = 176

smoothSolver:  Solving for Ux, Initial residual = 0.00459832, Final residual = 0.000383601, No Iterations 2
smoothSolver:  Solving for Uy, Initial residual = 0.00428926, Final residual = 0.000265161, No Iterations 2
smoothSolver:  Solving for Uz, Initial residual = 0.00719401, Final residual = 0.000393215, No Iterations 2
GAMG:  Solving for p, Initial residual = 0.00686413, Final residual = 0.000178661, No Iterations 2
time step continuity errors : sum local = 0.000156443, global = 3.95551e-05, cumulative = 0.0314919
smoothSolver:  Solving for epsilon, Initial residual = 0.0032606, Final residual = 0.000166678, No Iterations 2
smoothSolver:  Solving for k, Initial residual = 0.00236741, Final residual = 0.000101377, No Iterations 2
ExecutionTime = 52.4 s  ClockTime = 55 s

Time = 177

smoothSolver:  Solving for Ux, Initial residual = 0.00458013, Final residual = 0.000384897, No Iterations 2
smoothSolver:  Solving for Uy, Initial residual = 0.00427332, Final residual = 0.000265217, No Iterations 2
smoothSolver:  Solving for Uz, Initial residual = 0.00712824, Final residual = 0.000391588, No Iterations 2
GAMG:  Solving for p, Initial residual = 0.00682611, Final residual = 0.000172434, No Iterations 2
time step continuity errors : sum local = 0.00014999, global = 3.75042e-05, cumulative = 0.0315294
smoothSolver:  Solving for epsilon, Initial residual = 0.00324317, Final residual = 0.000165841, No Iterations 2
smoothSolver:  Solving for k, Initial residual = 0.0024211, Final residual = 9.65472e-05, No Iterations 2
ExecutionTime = 53.21 s  ClockTime = 56 s


    From virtual bool Foam::regIOobject::readIfModified()
    in file db/regIOobject/regIOobjectRead.C at line 282
        Re-reading object controlDict from file "/home/openfoam/of2012_projects/hotRoom6C_ABL/system/controlDict"
Time = 178

smoothSolver:  Solving for Ux, Initial residual = 0.00455627, Final residual = 0.000384702, No Iterations 2
smoothSolver:  Solving for Uy, Initial residual = 0.00424663, Final residual = 0.000264921, No Iterations 2
smoothSolver:  Solving for Uz, Initial residual = 0.00710021, Final residual = 0.000393801, No Iterations 2
GAMG:  Solving for p, Initial residual = 0.00677075, Final residual = 0.000160221, No Iterations 2
time step continuity errors : sum local = 0.000138312, global = -1.17803e-05, cumulative = 0.0315176
smoothSolver:  Solving for epsilon, Initial residual = 0.0032245, Final residual = 0.000165804, No Iterations 2
smoothSolver:  Solving for k, Initial residual = 0.00234884, Final residual = 0.000100728, No Iterations 2
ExecutionTime = 54.03 s  ClockTime = 57 s

Time = 179

smoothSolver:  Solving for Ux, Initial residual = 0.0045257, Final residual = 0.000384289, No Iterations 2
smoothSolver:  Solving for Uy, Initial residual = 0.00422471, Final residual = 0.000267803, No Iterations 2
smoothSolver:  Solving for Uz, Initial residual = 0.00707253, Final residual = 0.000392701, No Iterations 2
GAMG:  Solving for p, Initial residual = 0.00671194, Final residual = 0.000184568, No Iterations 2
time step continuity errors : sum local = 0.000158289, global = -2.39537e-06, cumulative = 0.0315152
smoothSolver:  Solving for epsilon, Initial residual = 0.00319968, Final residual = 0.000164293, No Iterations 2
smoothSolver:  Solving for k, Initial residual = 0.00240386, Final residual = 9.56873e-05, No Iterations 2
ExecutionTime = 54.84 s  ClockTime = 58 s

Time = 180

smoothSolver:  Solving for Ux, Initial residual = 0.00451218, Final residual = 0.000384772, No Iterations 2
smoothSolver:  Solving for Uy, Initial residual = 0.00418243, Final residual = 0.000261528, No Iterations 2
smoothSolver:  Solving for Uz, Initial residual = 0.0070201, Final residual = 0.000392913, No Iterations 2
GAMG:  Solving for p, Initial residual = 0.00666258, Final residual = 0.000184388, No Iterations 2
time step continuity errors : sum local = 0.000156974, global = 7.95466e-06, cumulative = 0.0315232
smoothSolver:  Solving for epsilon, Initial residual = 0.00318667, Final residual = 0.000165074, No Iterations 2
smoothSolver:  Solving for k, Initial residual = 0.00232985, Final residual = 0.000100889, No Iterations 2
ExecutionTime = 55.65 s  ClockTime = 59 s

Time = 181

smoothSolver:  Solving for Ux, Initial residual = 0.00451291, Final residual = 0.000386864, No Iterations 2
smoothSolver:  Solving for Uy, Initial residual = 0.00415424, Final residual = 0.000263675, No Iterations 2
smoothSolver:  Solving for Uz, Initial residual = 0.00699741, Final residual = 0.000393569, No Iterations 2
GAMG:  Solving for p, Initial residual = 0.00662963, Final residual = 0.000214106, No Iterations 2
time step continuity errors : sum local = 0.000181063, global = -1.45312e-05, cumulative = 0.0315087
smoothSolver:  Solving for epsilon, Initial residual = 0.00317113, Final residual = 0.000164204, No Iterations 2
smoothSolver:  Solving for k, Initial residual = 0.00238946, Final residual = 9.57358e-05, No Iterations 2
ExecutionTime = 56.5 s  ClockTime = 59 s

Time = 182

smoothSolver:  Solving for Ux, Initial residual = 0.00449743, Final residual = 0.000387395, No Iterations 2
smoothSolver:  Solving for Uy, Initial residual = 0.00413435, Final residual = 0.000262194, No Iterations 2
smoothSolver:  Solving for Uz, Initial residual = 0.00693221, Final residual = 0.000391797, No Iterations 2
GAMG:  Solving for p, Initial residual = 0.00658647, Final residual = 0.000174564, No Iterations 2
time step continuity errors : sum local = 0.000146547, global = -2.06267e-05, cumulative = 0.031488
smoothSolver:  Solving for epsilon, Initial residual = 0.00315361, Final residual = 0.000163792, No Iterations 2
smoothSolver:  Solving for k, Initial residual = 0.00232412, Final residual = 0.000100828, No Iterations 2
ExecutionTime = 57.33 s  ClockTime = 60 s

Time = 183

smoothSolver:  Solving for Ux, Initial residual = 0.00447089, Final residual = 0.000386963, No Iterations 2
smoothSolver:  Solving for Uy, Initial residual = 0.00413455, Final residual = 0.000266927, No Iterations 2
smoothSolver:  Solving for Uz, Initial residual = 0.00690094, Final residual = 0.00039096, No Iterations 2
GAMG:  Solving for p, Initial residual = 0.00649472, Final residual = 0.000159533, No Iterations 2
time step continuity errors : sum local = 0.000133095, global = 1.28374e-05, cumulative = 0.0315009
smoothSolver:  Solving for epsilon, Initial residual = 0.00312478, Final residual = 0.000162705, No Iterations 2
smoothSolver:  Solving for k, Initial residual = 0.00239243, Final residual = 9.544e-05, No Iterations 2
ExecutionTime = 58.14 s  ClockTime = 61 s

Time = 184

smoothSolver:  Solving for Ux, Initial residual = 0.00446334, Final residual = 0.000387456, No Iterations 2
smoothSolver:  Solving for Uy, Initial residual = 0.00409495, Final residual = 0.000263283, No Iterations 2
smoothSolver:  Solving for Uz, Initial residual = 0.00685616, Final residual = 0.00039151, No Iterations 2
GAMG:  Solving for p, Initial residual = 0.00646915, Final residual = 0.000164921, No Iterations 2
time step continuity errors : sum local = 0.000136573, global = 3.1799e-05, cumulative = 0.0315327
smoothSolver:  Solving for epsilon, Initial residual = 0.00311865, Final residual = 0.000163491, No Iterations 2
smoothSolver:  Solving for k, Initial residual = 0.00231181, Final residual = 0.000101965, No Iterations 2
ExecutionTime = 58.97 s  ClockTime = 62 s

Time = 185

smoothSolver:  Solving for Ux, Initial residual = 0.00445563, Final residual = 0.000388538, No Iterations 2
smoothSolver:  Solving for Uy, Initial residual = 0.00407449, Final residual = 0.000265455, No Iterations 2
smoothSolver:  Solving for Uz, Initial residual = 0.00682033, Final residual = 0.000391483, No Iterations 2
GAMG:  Solving for p, Initial residual = 0.00641533, Final residual = 0.000175731, No Iterations 2
time step continuity errors : sum local = 0.000144636, global = 3.61718e-05, cumulative = 0.0315688
smoothSolver:  Solving for epsilon, Initial residual = 0.00310249, Final residual = 0.000162857, No Iterations 2
smoothSolver:  Solving for k, Initial residual = 0.00237499, Final residual = 9.57564e-05, No Iterations 2
ExecutionTime = 59.8 s  ClockTime = 63 s

Time = 186

smoothSolver:  Solving for Ux, Initial residual = 0.00443099, Final residual = 0.000388071, No Iterations 2
smoothSolver:  Solving for Uy, Initial residual = 0.00404067, Final residual = 0.000263434, No Iterations 2
smoothSolver:  Solving for Uz, Initial residual = 0.00677721, Final residual = 0.000389377, No Iterations 2
GAMG:  Solving for p, Initial residual = 0.00638758, Final residual = 0.000168283, No Iterations 2
time step continuity errors : sum local = 0.000137515, global = 3.36592e-05, cumulative = 0.0316025
smoothSolver:  Solving for epsilon, Initial residual = 0.00308937, Final residual = 0.000162593, No Iterations 2
smoothSolver:  Solving for k, Initial residual = 0.00230056, Final residual = 0.000101855, No Iterations 2
ExecutionTime = 60.66 s  ClockTime = 64 s

Time = 187

smoothSolver:  Solving for Ux, Initial residual = 0.0044169, Final residual = 0.000388722, No Iterations 2
smoothSolver:  Solving for Uy, Initial residual = 0.00402229, Final residual = 0.000265509, No Iterations 2
smoothSolver:  Solving for Uz, Initial residual = 0.00673699, Final residual = 0.000390857, No Iterations 2
GAMG:  Solving for p, Initial residual = 0.00634222, Final residual = 0.000161157, No Iterations 2
time step continuity errors : sum local = 0.000130899, global = -1.41126e-05, cumulative = 0.0315884
smoothSolver:  Solving for epsilon, Initial residual = 0.00306159, Final residual = 0.000161406, No Iterations 2
smoothSolver:  Solving for k, Initial residual = 0.00237033, Final residual = 9.66209e-05, No Iterations 2
ExecutionTime = 61.47 s  ClockTime = 64 s

Time = 188

smoothSolver:  Solving for Ux, Initial residual = 0.00438505, Final residual = 0.000387304, No Iterations 2
smoothSolver:  Solving for Uy, Initial residual = 0.00401074, Final residual = 0.000265437, No Iterations 2
smoothSolver:  Solving for Uz, Initial residual = 0.00670492, Final residual = 0.000390704, No Iterations 2
GAMG:  Solving for p, Initial residual = 0.00634715, Final residual = 0.000180127, No Iterations 2
time step continuity errors : sum local = 0.000145303, global = -2.97207e-06, cumulative = 0.0315854
smoothSolver:  Solving for epsilon, Initial residual = 0.0030516, Final residual = 0.000162145, No Iterations 2
smoothSolver:  Solving for k, Initial residual = 0.00229145, Final residual = 0.000102272, No Iterations 2
ExecutionTime = 62.28 s  ClockTime = 65 s

Time = 189

smoothSolver:  Solving for Ux, Initial residual = 0.00437736, Final residual = 0.000389201, No Iterations 2
smoothSolver:  Solving for Uy, Initial residual = 0.00398366, Final residual = 0.000264413, No Iterations 2
smoothSolver:  Solving for Uz, Initial residual = 0.00667227, Final residual = 0.000391282, No Iterations 2
GAMG:  Solving for p, Initial residual = 0.00630931, Final residual = 0.000178854, No Iterations 2
time step continuity errors : sum local = 0.000143428, global = -1.47371e-06, cumulative = 0.0315839
smoothSolver:  Solving for epsilon, Initial residual = 0.00302943, Final residual = 0.000161796, No Iterations 2
smoothSolver:  Solving for k, Initial residual = 0.00234728, Final residual = 9.72232e-05, No Iterations 2
ExecutionTime = 63.15 s  ClockTime = 66 s

Time = 190

smoothSolver:  Solving for Ux, Initial residual = 0.00436837, Final residual = 0.000390095, No Iterations 2
smoothSolver:  Solving for Uy, Initial residual = 0.0039438, Final residual = 0.000262685, No Iterations 2
smoothSolver:  Solving for Uz, Initial residual = 0.00660594, Final residual = 0.000390098, No Iterations 2
GAMG:  Solving for p, Initial residual = 0.00625373, Final residual = 0.000193941, No Iterations 2
time step continuity errors : sum local = 0.000154412, global = -1.26323e-05, cumulative = 0.0315713
smoothSolver:  Solving for epsilon, Initial residual = 0.00301827, Final residual = 0.00016194, No Iterations 2
smoothSolver:  Solving for k, Initial residual = 0.00226988, Final residual = 0.000102489, No Iterations 2
ExecutionTime = 63.97 s  ClockTime = 67 s

Time = 191

smoothSolver:  Solving for Ux, Initial residual = 0.00436202, Final residual = 0.000391371, No Iterations 2
smoothSolver:  Solving for Uy, Initial residual = 0.00393572, Final residual = 0.000266442, No Iterations 2
smoothSolver:  Solving for Uz, Initial residual = 0.00658812, Final residual = 0.000392781, No Iterations 2
GAMG:  Solving for p, Initial residual = 0.00619676, Final residual = 0.000184452, No Iterations 2
time step continuity errors : sum local = 0.000146047, global = -2.13894e-05, cumulative = 0.0315499
smoothSolver:  Solving for epsilon, Initial residual = 0.00300131, Final residual = 0.000160711, No Iterations 2
smoothSolver:  Solving for k, Initial residual = 0.00233124, Final residual = 9.7845e-05, No Iterations 2
ExecutionTime = 64.78 s  ClockTime = 68 s

Time = 192

smoothSolver:  Solving for Ux, Initial residual = 0.00433385, Final residual = 0.000390294, No Iterations 2
smoothSolver:  Solving for Uy, Initial residual = 0.00392772, Final residual = 0.000267036, No Iterations 2
smoothSolver:  Solving for Uz, Initial residual = 0.0065513, Final residual = 0.000390737, No Iterations 2
GAMG:  Solving for p, Initial residual = 0.00615813, Final residual = 0.000151053, No Iterations 2
time step continuity errors : sum local = 0.000118746, global = 1.83728e-05, cumulative = 0.0315683
smoothSolver:  Solving for epsilon, Initial residual = 0.00299193, Final residual = 0.000161628, No Iterations 2
smoothSolver:  Solving for k, Initial residual = 0.00225623, Final residual = 0.000103562, No Iterations 2
ExecutionTime = 65.59 s  ClockTime = 69 s

Time = 193

smoothSolver:  Solving for Ux, Initial residual = 0.00432816, Final residual = 0.000390949, No Iterations 2
smoothSolver:  Solving for Uy, Initial residual = 0.00390795, Final residual = 0.000268555, No Iterations 2
smoothSolver:  Solving for Uz, Initial residual = 0.00652096, Final residual = 0.000391713, No Iterations 2
GAMG:  Solving for p, Initial residual = 0.00606961, Final residual = 0.000170082, No Iterations 2
time step continuity errors : sum local = 0.000132983, global = 3.22271e-05, cumulative = 0.0316005
smoothSolver:  Solving for epsilon, Initial residual = 0.00297156, Final residual = 0.000160714, No Iterations 2
smoothSolver:  Solving for k, Initial residual = 0.00232246, Final residual = 9.87476e-05, No Iterations 2
ExecutionTime = 66.4 s  ClockTime = 69 s

Time = 194

smoothSolver:  Solving for Ux, Initial residual = 0.00429644, Final residual = 0.00039033, No Iterations 2
smoothSolver:  Solving for Uy, Initial residual = 0.0038942, Final residual = 0.000266165, No Iterations 2
smoothSolver:  Solving for Uz, Initial residual = 0.00646874, Final residual = 0.000386935, No Iterations 2
GAMG:  Solving for p, Initial residual = 0.00602584, Final residual = 0.000174396, No Iterations 2
time step continuity errors : sum local = 0.000135436, global = 3.45252e-05, cumulative = 0.031635
smoothSolver:  Solving for epsilon, Initial residual = 0.00294834, Final residual = 0.000161073, No Iterations 2
smoothSolver:  Solving for k, Initial residual = 0.00224347, Final residual = 0.000104347, No Iterations 2
ExecutionTime = 67.22 s  ClockTime = 70 s

Time = 195

smoothSolver:  Solving for Ux, Initial residual = 0.00427991, Final residual = 0.00039048, No Iterations 2
smoothSolver:  Solving for Uy, Initial residual = 0.00385624, Final residual = 0.000268394, No Iterations 2
smoothSolver:  Solving for Uz, Initial residual = 0.00644259, Final residual = 0.000392384, No Iterations 2
GAMG:  Solving for p, Initial residual = 0.00598412, Final residual = 0.000163219, No Iterations 2
time step continuity errors : sum local = 0.000126066, global = 3.08823e-05, cumulative = 0.0316659
smoothSolver:  Solving for epsilon, Initial residual = 0.00293037, Final residual = 0.000159907, No Iterations 2
smoothSolver:  Solving for k, Initial residual = 0.00231776, Final residual = 9.989e-05, No Iterations 2
ExecutionTime = 68.03 s  ClockTime = 71 s

Time = 196

smoothSolver:  Solving for Ux, Initial residual = 0.00425052, Final residual = 0.000389151, No Iterations 2
smoothSolver:  Solving for Uy, Initial residual = 0.00385175, Final residual = 0.00026606, No Iterations 2
smoothSolver:  Solving for Uz, Initial residual = 0.00639504, Final residual = 0.000388566, No Iterations 2
GAMG:  Solving for p, Initial residual = 0.00597406, Final residual = 0.000162469, No Iterations 2
time step continuity errors : sum local = 0.000124649, global = -1.54758e-05, cumulative = 0.0316504
smoothSolver:  Solving for epsilon, Initial residual = 0.00291368, Final residual = 0.00016091, No Iterations 2
smoothSolver:  Solving for k, Initial residual = 0.00222926, Final residual = 0.000105735, No Iterations 2
ExecutionTime = 68.84 s  ClockTime = 72 s

Time = 197

smoothSolver:  Solving for Ux, Initial residual = 0.00450256, Final residual = 0.00039484, No Iterations 2
smoothSolver:  Solving for Uy, Initial residual = 0.00508745, Final residual = 0.000370922, No Iterations 2
smoothSolver:  Solving for Uz, Initial residual = 0.00703938, Final residual = 0.000437634, No Iterations 2
GAMG:  Solving for p, Initial residual = 0.00693546, Final residual = 0.000197206, No Iterations 2
time step continuity errors : sum local = 0.000150522, global = -2.0297e-06, cumulative = 0.0316484
smoothSolver:  Solving for epsilon, Initial residual = 0.00290769, Final residual = 0.000160877, No Iterations 2
smoothSolver:  Solving for k, Initial residual = 0.00231996, Final residual = 0.000101585, No Iterations 2
bounding k, min: -0.0533804 max: 115.455 average: 5.72662
ExecutionTime = 69.66 s  ClockTime = 73 s

Time = 198

smoothSolver:  Solving for Ux, Initial residual = 0.00430637, Final residual = 0.00039071, No Iterations 2
smoothSolver:  Solving for Uy, Initial residual = 0.00514993, Final residual = 0.000273664, No Iterations 2
smoothSolver:  Solving for Uz, Initial residual = 0.00771387, Final residual = 0.000394756, No Iterations 2
GAMG:  Solving for p, Initial residual = 0.00624029, Final residual = 0.000175894, No Iterations 2
time step continuity errors : sum local = 0.000133508, global = -5.15619e-06, cumulative = 0.0316433
smoothSolver:  Solving for epsilon, Initial residual = 0.00288647, Final residual = 0.000159989, No Iterations 2
bounding epsilon, min: -0.0290735 max: 1813.12 average: 23.4957
smoothSolver:  Solving for k, Initial residual = 0.00222664, Final residual = 0.000107194, No Iterations 2
bounding k, min: -0.0562864 max: 115.342 average: 5.71934
ExecutionTime = 70.49 s  ClockTime = 74 s

Time = 199

smoothSolver:  Solving for Ux, Initial residual = 0.00425025, Final residual = 0.000391248, No Iterations 2
smoothSolver:  Solving for Uy, Initial residual = 0.00435889, Final residual = 0.000271613, No Iterations 2
smoothSolver:  Solving for Uz, Initial residual = 0.00700471, Final residual = 0.000385028, No Iterations 2
GAMG:  Solving for p, Initial residual = 0.00604066, Final residual = 0.000193637, No Iterations 2
time step continuity errors : sum local = 0.000146215, global = -1.63161e-05, cumulative = 0.0316269
smoothSolver:  Solving for epsilon, Initial residual = 0.00285756, Final residual = 0.000159527, No Iterations 2
bounding epsilon, min: -0.00496043 max: 1810.6 average: 23.3863
smoothSolver:  Solving for k, Initial residual = 0.0023178, Final residual = 0.000102327, No Iterations 2
bounding k, min: -0.00632392 max: 115.229 average: 5.71208
ExecutionTime = 71.32 s  ClockTime = 74 s

Time = 200

smoothSolver:  Solving for Ux, Initial residual = 0.00423573, Final residual = 0.000390354, No Iterations 2
smoothSolver:  Solving for Uy, Initial residual = 0.00424168, Final residual = 0.000272374, No Iterations 2
smoothSolver:  Solving for Uz, Initial residual = 0.00673207, Final residual = 0.000394239, No Iterations 2
GAMG:  Solving for p, Initial residual = 0.00604672, Final residual = 0.000184245, No Iterations 2
time step continuity errors : sum local = 0.000138139, global = -2.28753e-05, cumulative = 0.0316041
smoothSolver:  Solving for epsilon, Initial residual = 0.0028503, Final residual = 0.000159955, No Iterations 2
bounding epsilon, min: -0.0486114 max: 1808.24 average: 23.2775
smoothSolver:  Solving for k, Initial residual = 0.00224357, Final residual = 0.000108916, No Iterations 2
bounding k, min: -0.00833776 max: 115.114 average: 5.70473
ExecutionTime = 73.34 s  ClockTime = 77 s

Time = 201

smoothSolver:  Solving for Ux, Initial residual = 0.00419381, Final residual = 0.000389899, No Iterations 2
smoothSolver:  Solving for Uy, Initial residual = 0.00398669, Final residual = 0.000267048, No Iterations 2
smoothSolver:  Solving for Uz, Initial residual = 0.00652022, Final residual = 0.000391677, No Iterations 2
GAMG:  Solving for p, Initial residual = 0.00587476, Final residual = 0.000150208, No Iterations 2
time step continuity errors : sum local = 0.00011206, global = -1.24121e-05, cumulative = 0.0315917
smoothSolver:  Solving for epsilon, Initial residual = 0.00282269, Final residual = 0.000160167, No Iterations 2
bounding epsilon, min: -0.00453447 max: 1805.52 average: 23.169
smoothSolver:  Solving for k, Initial residual = 0.00232366, Final residual = 0.00010391, No Iterations 2
bounding k, min: -0.00775917 max: 115 average: 5.69738
ExecutionTime = 74.21 s  ClockTime = 78 s

Time = 202

smoothSolver:  Solving for Ux, Initial residual = 0.00414837, Final residual = 0.000388468, No Iterations 2
smoothSolver:  Solving for Uy, Initial residual = 0.00386174, Final residual = 0.00026773, No Iterations 2
smoothSolver:  Solving for Uz, Initial residual = 0.00629855, Final residual = 0.000391633, No Iterations 2
GAMG:  Solving for p, Initial residual = 0.00578874, Final residual = 0.000192032, No Iterations 2
time step continuity errors : sum local = 0.000142368, global = -1.29603e-05, cumulative = 0.0315787
smoothSolver:  Solving for epsilon, Initial residual = 0.00281566, Final residual = 0.00015966, No Iterations 2
bounding epsilon, min: -0.00732662 max: 1803.17 average: 23.0621
smoothSolver:  Solving for k, Initial residual = 0.00222317, Final residual = 0.000110428, No Iterations 2
bounding k, min: -0.00840721 max: 114.884 average: 5.68989
ExecutionTime = 75.11 s  ClockTime = 79 s

Time = 203

smoothSolver:  Solving for Ux, Initial residual = 0.00413856, Final residual = 0.000389034, No Iterations 2
smoothSolver:  Solving for Uy, Initial residual = 0.00379643, Final residual = 0.00026772, No Iterations 2
smoothSolver:  Solving for Uz, Initial residual = 0.00624854, Final residual = 0.000396374, No Iterations 2
GAMG:  Solving for p, Initial residual = 0.00573378, Final residual = 0.000200807, No Iterations 2
time step continuity errors : sum local = 0.000148087, global = -1.90392e-05, cumulative = 0.0315597
smoothSolver:  Solving for epsilon, Initial residual = 0.00277541, Final residual = 0.000159205, No Iterations 2
bounding epsilon, min: -0.00638783 max: 1800.58 average: 22.9555
smoothSolver:  Solving for k, Initial residual = 0.00230283, Final residual = 0.000105534, No Iterations 2
bounding k, min: -0.00724472 max: 114.768 average: 5.68244
ExecutionTime = 75.98 s  ClockTime = 80 s

Time = 204

smoothSolver:  Solving for Ux, Initial residual = 0.00411431, Final residual = 0.000388518, No Iterations 2
smoothSolver:  Solving for Uy, Initial residual = 0.00374189, Final residual = 0.00026688, No Iterations 2
smoothSolver:  Solving for Uz, Initial residual = 0.00613186, Final residual = 0.000392562, No Iterations 2
GAMG:  Solving for p, Initial residual = 0.00567525, Final residual = 0.00018001, No Iterations 2
time step continuity errors : sum local = 0.00013191, global = -1.99159e-05, cumulative = 0.0315397
smoothSolver:  Solving for epsilon, Initial residual = 0.00278506, Final residual = 0.000159308, No Iterations 2
bounding epsilon, min: -0.00729933 max: 1798.21 average: 22.8501
smoothSolver:  Solving for k, Initial residual = 0.0021972, Final residual = 0.000112228, No Iterations 2
bounding k, min: -0.00846518 max: 114.651 average: 5.6748
ExecutionTime = 76.81 s  ClockTime = 81 s

Time = 205

smoothSolver:  Solving for Ux, Initial residual = 0.00409508, Final residual = 0.000387923, No Iterations 2
smoothSolver:  Solving for Uy, Initial residual = 0.00371607, Final residual = 0.000269412, No Iterations 2
smoothSolver:  Solving for Uz, Initial residual = 0.00616305, Final residual = 0.000394685, No Iterations 2
GAMG:  Solving for p, Initial residual = 0.00564406, Final residual = 0.000161143, No Iterations 2
time step continuity errors : sum local = 0.0001175, global = -1.46005e-05, cumulative = 0.0315251
smoothSolver:  Solving for epsilon, Initial residual = 0.00274235, Final residual = 0.000159613, No Iterations 2
bounding epsilon, min: -0.00604894 max: 1795.5 average: 22.7446
smoothSolver:  Solving for k, Initial residual = 0.00227901, Final residual = 0.000106714, No Iterations 2
bounding k, min: -0.00784537 max: 114.534 average: 5.66715
ExecutionTime = 77.64 s  ClockTime = 81 s

Time = 206

smoothSolver:  Solving for Ux, Initial residual = 0.00407149, Final residual = 0.000387368, No Iterations 2
smoothSolver:  Solving for Uy, Initial residual = 0.00369396, Final residual = 0.00026817, No Iterations 2
smoothSolver:  Solving for Uz, Initial residual = 0.00604843, Final residual = 0.000390089, No Iterations 2
GAMG:  Solving for p, Initial residual = 0.00557837, Final residual = 0.000182079, No Iterations 2
time step continuity errors : sum local = 0.000131911, global = -1.41669e-05, cumulative = 0.031511
smoothSolver:  Solving for epsilon, Initial residual = 0.00275435, Final residual = 0.00015859, No Iterations 2
bounding epsilon, min: -0.00747885 max: 1793.16 average: 22.6411
smoothSolver:  Solving for k, Initial residual = 0.00217306, Final residual = 0.000113696, No Iterations 2
bounding k, min: -0.00862802 max: 114.416 average: 5.65933
ExecutionTime = 78.46 s  ClockTime = 82 s

Time = 207

smoothSolver:  Solving for Ux, Initial residual = 0.00406031, Final residual = 0.000387344, No Iterations 2
smoothSolver:  Solving for Uy, Initial residual = 0.00366044, Final residual = 0.000268916, No Iterations 2
smoothSolver:  Solving for Uz, Initial residual = 0.00609042, Final residual = 0.000393319, No Iterations 2
GAMG:  Solving for p, Initial residual = 0.00554549, Final residual = 0.000189474, No Iterations 2
time step continuity errors : sum local = 0.000136607, global = -1.7537e-05, cumulative = 0.0314934
smoothSolver:  Solving for epsilon, Initial residual = 0.00270059, Final residual = 0.000159184, No Iterations 2
bounding epsilon, min: -0.00610217 max: 1790.57 average: 22.5375
smoothSolver:  Solving for k, Initial residual = 0.00226626, Final residual = 0.000107902, No Iterations 2
bounding k, min: -0.00755449 max: 114.298 average: 5.65147
ExecutionTime = 79.29 s  ClockTime = 83 s

Time = 208

smoothSolver:  Solving for Ux, Initial residual = 0.0040312, Final residual = 0.000386677, No Iterations 2
smoothSolver:  Solving for Uy, Initial residual = 0.00365812, Final residual = 0.000267496, No Iterations 2
smoothSolver:  Solving for Uz, Initial residual = 0.00597193, Final residual = 0.000389357, No Iterations 2
GAMG:  Solving for p, Initial residual = 0.00548454, Final residual = 0.000184843, No Iterations 2
time step continuity errors : sum local = 0.000132447, global = -1.95382e-05, cumulative = 0.0314739
smoothSolver:  Solving for epsilon, Initial residual = 0.00272836, Final residual = 0.000158652, No Iterations 2
bounding epsilon, min: -0.00778749 max: 1788.18 average: 22.4354
smoothSolver:  Solving for k, Initial residual = 0.00215193, Final residual = 0.000116033, No Iterations 2
bounding k, min: -0.00873487 max: 114.178 average: 5.6435
ExecutionTime = 80.12 s  ClockTime = 84 s

Time = 209

smoothSolver:  Solving for Ux, Initial residual = 0.00401568, Final residual = 0.000385783, No Iterations 2
smoothSolver:  Solving for Uy, Initial residual = 0.00361565, Final residual = 0.000268511, No Iterations 2
smoothSolver:  Solving for Uz, Initial residual = 0.00601375, Final residual = 0.000391513, No Iterations 2
GAMG:  Solving for p, Initial residual = 0.00548811, Final residual = 0.00017743, No Iterations 2
time step continuity errors : sum local = 0.000126525, global = -1.87605e-05, cumulative = 0.0314551
smoothSolver:  Solving for epsilon, Initial residual = 0.00266883, Final residual = 0.0001594, No Iterations 2
bounding epsilon, min: -0.00624243 max: 1785.46 average: 22.3329
smoothSolver:  Solving for k, Initial residual = 0.00225556, Final residual = 0.000109778, No Iterations 2
bounding k, min: -0.00811961 max: 114.059 average: 5.63549
ExecutionTime = 80.96 s  ClockTime = 85 s

Time = 210

smoothSolver:  Solving for Ux, Initial residual = 0.00399225, Final residual = 0.000384936, No Iterations 2
[...]
smoothSolver:  Solving for Uy, Initial residual = 0.00213531, Final residual = 7.43542e-05, No Iterations 1
smoothSolver:  Solving for Uz, Initial residual = 0.00276891, Final residual = 0.0002408, No Iterations 1
GAMG:  Solving for p, Initial residual = 0.000592117, Final residual = 4.30795e-05, No Iterations 2
time step continuity errors : sum local = 2.70163e-05, global = 4.46635e-06, cumulative = 0.0337964
smoothSolver:  Solving for epsilon, Initial residual = 0.000321302, Final residual = 1.25971e-05, No Iterations 2
smoothSolver:  Solving for k, Initial residual = 0.000700158, Final residual = 3.48985e-05, No Iterations 2
ExecutionTime = 1143.75 s  ClockTime = 1170 s

Time = 1977

smoothSolver:  Solving for Ux, Initial residual = 0.00449984, Final residual = 0.000320033, No Iterations 2
smoothSolver:  Solving for Uy, Initial residual = 0.00194732, Final residual = 6.76903e-05, No Iterations 1
smoothSolver:  Solving for Uz, Initial residual = 0.00275314, Final residual = 0.000239342, No Iterations 1
GAMG:  Solving for p, Initial residual = 0.000566602, Final residual = 4.05848e-05, No Iterations 2
time step continuity errors : sum local = 2.54765e-05, global = 3.81049e-06, cumulative = 0.0338002
smoothSolver:  Solving for epsilon, Initial residual = 0.000377881, Final residual = 1.22855e-05, No Iterations 2
smoothSolver:  Solving for k, Initial residual = 0.000656204, Final residual = 3.50554e-05, No Iterations 2
ExecutionTime = 1144.24 s  ClockTime = 1170 s

Time = 1978

smoothSolver:  Solving for Ux, Initial residual = 0.00449957, Final residual = 0.000320037, No Iterations 2
smoothSolver:  Solving for Uy, Initial residual = 0.00209765, Final residual = 7.39844e-05, No Iterations 1
smoothSolver:  Solving for Uz, Initial residual = 0.00258175, Final residual = 0.000240431, No Iterations 1
GAMG:  Solving for p, Initial residual = 0.000581894, Final residual = 4.20154e-05, No Iterations 2
time step continuity errors : sum local = 2.63682e-05, global = 4.38133e-06, cumulative = 0.0338045
smoothSolver:  Solving for epsilon, Initial residual = 0.000320608, Final residual = 1.2563e-05, No Iterations 2
smoothSolver:  Solving for k, Initial residual = 0.000693509, Final residual = 3.51114e-05, No Iterations 2
ExecutionTime = 1144.73 s  ClockTime = 1171 s

Time = 1979

smoothSolver:  Solving for Ux, Initial residual = 0.00449925, Final residual = 0.000320168, No Iterations 2
smoothSolver:  Solving for Uy, Initial residual = 0.00193553, Final residual = 6.81723e-05, No Iterations 1
smoothSolver:  Solving for Uz, Initial residual = 0.00265167, Final residual = 0.000227857, No Iterations 1
GAMG:  Solving for p, Initial residual = 0.000564252, Final residual = 4.0388e-05, No Iterations 2
time step continuity errors : sum local = 2.53719e-05, global = 3.84036e-06, cumulative = 0.0338084
smoothSolver:  Solving for epsilon, Initial residual = 0.000377191, Final residual = 1.22785e-05, No Iterations 2
smoothSolver:  Solving for k, Initial residual = 0.000665567, Final residual = 3.49185e-05, No Iterations 2
ExecutionTime = 1145.22 s  ClockTime = 1171 s

Time = 1980

smoothSolver:  Solving for Ux, Initial residual = 0.0044989, Final residual = 0.000320184, No Iterations 2
smoothSolver:  Solving for Uy, Initial residual = 0.00209342, Final residual = 7.42731e-05, No Iterations 1
smoothSolver:  Solving for Uz, Initial residual = 0.00265014, Final residual = 0.000235826, No Iterations 1
GAMG:  Solving for p, Initial residual = 0.000581394, Final residual = 4.1538e-05, No Iterations 2
time step continuity errors : sum local = 2.60886e-05, global = 4.29172e-06, cumulative = 0.0338127
smoothSolver:  Solving for epsilon, Initial residual = 0.000321027, Final residual = 1.25962e-05, No Iterations 2
smoothSolver:  Solving for k, Initial residual = 0.000702801, Final residual = 3.52156e-05, No Iterations 2
ExecutionTime = 1145.71 s  ClockTime = 1172 s

Time = 1981

smoothSolver:  Solving for Ux, Initial residual = 0.00449863, Final residual = 0.000320333, No Iterations 2
smoothSolver:  Solving for Uy, Initial residual = 0.0019496, Final residual = 6.7854e-05, No Iterations 1
smoothSolver:  Solving for Uz, Initial residual = 0.00275706, Final residual = 0.00023366, No Iterations 1
GAMG:  Solving for p, Initial residual = 0.000560374, Final residual = 3.9234e-05, No Iterations 2
time step continuity errors : sum local = 2.46654e-05, global = 3.671e-06, cumulative = 0.0338164
smoothSolver:  Solving for epsilon, Initial residual = 0.000377315, Final residual = 1.22757e-05, No Iterations 2
smoothSolver:  Solving for k, Initial residual = 0.000664984, Final residual = 3.50189e-05, No Iterations 2
ExecutionTime = 1146.21 s  ClockTime = 1172 s

Time = 1982

smoothSolver:  Solving for Ux, Initial residual = 0.00449828, Final residual = 0.000320342, No Iterations 2
smoothSolver:  Solving for Uy, Initial residual = 0.00210698, Final residual = 7.4067e-05, No Iterations 1
smoothSolver:  Solving for Uz, Initial residual = 0.0027495, Final residual = 0.000238842, No Iterations 1
GAMG:  Solving for p, Initial residual = 0.000575806, Final residual = 4.02823e-05, No Iterations 2
time step continuity errors : sum local = 2.53191e-05, global = 4.17772e-06, cumulative = 0.0338205
smoothSolver:  Solving for epsilon, Initial residual = 0.000321023, Final residual = 1.25478e-05, No Iterations 2
smoothSolver:  Solving for k, Initial residual = 0.000701631, Final residual = 3.48539e-05, No Iterations 2
ExecutionTime = 1146.7 s  ClockTime = 1173 s

Time = 1983

smoothSolver:  Solving for Ux, Initial residual = 0.00449777, Final residual = 0.000320469, No Iterations 2
smoothSolver:  Solving for Uy, Initial residual = 0.00194784, Final residual = 6.82438e-05, No Iterations 1
smoothSolver:  Solving for Uz, Initial residual = 0.00273557, Final residual = 0.000235365, No Iterations 1
GAMG:  Solving for p, Initial residual = 0.000559096, Final residual = 3.8117e-05, No Iterations 2
time step continuity errors : sum local = 2.39821e-05, global = 3.56005e-06, cumulative = 0.0338241
smoothSolver:  Solving for epsilon, Initial residual = 0.000377263, Final residual = 1.22735e-05, No Iterations 2
smoothSolver:  Solving for k, Initial residual = 0.000654815, Final residual = 3.51701e-05, No Iterations 2
ExecutionTime = 1147.2 s  ClockTime = 1173 s

Time = 1984

smoothSolver:  Solving for Ux, Initial residual = 0.00449721, Final residual = 0.000320461, No Iterations 2
smoothSolver:  Solving for Uy, Initial residual = 0.00210556, Final residual = 7.47346e-05, No Iterations 1
smoothSolver:  Solving for Uz, Initial residual = 0.00267008, Final residual = 0.000239034, No Iterations 1
GAMG:  Solving for p, Initial residual = 0.000580663, Final residual = 3.95258e-05, No Iterations 2
time step continuity errors : sum local = 2.48627e-05, global = 4.09253e-06, cumulative = 0.0338282
smoothSolver:  Solving for epsilon, Initial residual = 0.000320772, Final residual = 1.25704e-05, No Iterations 2
smoothSolver:  Solving for k, Initial residual = 0.000695091, Final residual = 3.50755e-05, No Iterations 2
ExecutionTime = 1147.69 s  ClockTime = 1174 s

Time = 1985

smoothSolver:  Solving for Ux, Initial residual = 0.00449662, Final residual = 0.000320575, No Iterations 2
smoothSolver:  Solving for Uy, Initial residual = 0.00194162, Final residual = 6.84802e-05, No Iterations 1
smoothSolver:  Solving for Uz, Initial residual = 0.00278542, Final residual = 0.000229782, No Iterations 1
GAMG:  Solving for p, Initial residual = 0.000556414, Final residual = 3.79139e-05, No Iterations 2
time step continuity errors : sum local = 2.38733e-05, global = 3.53207e-06, cumulative = 0.0338317
smoothSolver:  Solving for epsilon, Initial residual = 0.000377067, Final residual = 1.22515e-05, No Iterations 2
smoothSolver:  Solving for k, Initial residual = 0.000664585, Final residual = 3.48601e-05, No Iterations 2
ExecutionTime = 1148.18 s  ClockTime = 1174 s

Time = 1986

smoothSolver:  Solving for Ux, Initial residual = 0.00449597, Final residual = 0.000320566, No Iterations 2
smoothSolver:  Solving for Uy, Initial residual = 0.00210823, Final residual = 7.50608e-05, No Iterations 1
smoothSolver:  Solving for Uz, Initial residual = 0.00273272, Final residual = 0.000233718, No Iterations 1
GAMG:  Solving for p, Initial residual = 0.000575992, Final residual = 3.95914e-05, No Iterations 2
time step continuity errors : sum local = 2.49245e-05, global = 4.07233e-06, cumulative = 0.0338358
smoothSolver:  Solving for epsilon, Initial residual = 0.000320126, Final residual = 1.25375e-05, No Iterations 2
smoothSolver:  Solving for k, Initial residual = 0.000700827, Final residual = 3.52431e-05, No Iterations 2
ExecutionTime = 1148.66 s  ClockTime = 1175 s

Time = 1987

smoothSolver:  Solving for Ux, Initial residual = 0.00449536, Final residual = 0.00032068, No Iterations 2
smoothSolver:  Solving for Uy, Initial residual = 0.00196857, Final residual = 6.88789e-05, No Iterations 1
smoothSolver:  Solving for Uz, Initial residual = 0.00279982, Final residual = 0.000230309, No Iterations 1
GAMG:  Solving for p, Initial residual = 0.000558806, Final residual = 3.8278e-05, No Iterations 2
time step continuity errors : sum local = 2.41217e-05, global = 3.55066e-06, cumulative = 0.0338393
smoothSolver:  Solving for epsilon, Initial residual = 0.000376908, Final residual = 1.22539e-05, No Iterations 2
smoothSolver:  Solving for k, Initial residual = 0.000667271, Final residual = 3.49494e-05, No Iterations 2
ExecutionTime = 1149.16 s  ClockTime = 1175 s

Time = 1988

smoothSolver:  Solving for Ux, Initial residual = 0.00449478, Final residual = 0.000320672, No Iterations 2
smoothSolver:  Solving for Uy, Initial residual = 0.00214338, Final residual = 7.51906e-05, No Iterations 1
smoothSolver:  Solving for Uz, Initial residual = 0.00281609, Final residual = 0.000238412, No Iterations 1
GAMG:  Solving for p, Initial residual = 0.00058351, Final residual = 4.02977e-05, No Iterations 2
time step continuity errors : sum local = 2.53898e-05, global = 4.13552e-06, cumulative = 0.0338435
smoothSolver:  Solving for epsilon, Initial residual = 0.000320565, Final residual = 1.25472e-05, No Iterations 2
smoothSolver:  Solving for k, Initial residual = 0.00070275, Final residual = 3.48734e-05, No Iterations 2
ExecutionTime = 1149.66 s  ClockTime = 1176 s

Time = 1989

smoothSolver:  Solving for Ux, Initial residual = 0.00449427, Final residual = 0.000320805, No Iterations 2
smoothSolver:  Solving for Uy, Initial residual = 0.00196494, Final residual = 6.90952e-05, No Iterations 1
smoothSolver:  Solving for Uz, Initial residual = 0.00283281, Final residual = 0.000233924, No Iterations 1
GAMG:  Solving for p, Initial residual = 0.00055665, Final residual = 3.90767e-05, No Iterations 2
time step continuity errors : sum local = 2.46453e-05, global = 3.61995e-06, cumulative = 0.0338471
smoothSolver:  Solving for epsilon, Initial residual = 0.000376939, Final residual = 1.2275e-05, No Iterations 2
smoothSolver:  Solving for k, Initial residual = 0.000655504, Final residual = 3.51218e-05, No Iterations 2
ExecutionTime = 1150.15 s  ClockTime = 1176 s

Time = 1990

smoothSolver:  Solving for Ux, Initial residual = 0.00449375, Final residual = 0.000320797, No Iterations 2
smoothSolver:  Solving for Uy, Initial residual = 0.00214768, Final residual = 7.53574e-05, No Iterations 1
smoothSolver:  Solving for Uz, Initial residual = 0.00268087, Final residual = 0.000234005, No Iterations 1
GAMG:  Solving for p, Initial residual = 0.000584897, Final residual = 4.14242e-05, No Iterations 2
time step continuity errors : sum local = 2.61202e-05, global = 4.26111e-06, cumulative = 0.0338514
smoothSolver:  Solving for epsilon, Initial residual = 0.000320594, Final residual = 1.2543e-05, No Iterations 2
smoothSolver:  Solving for k, Initial residual = 0.000696497, Final residual = 3.49964e-05, No Iterations 2
ExecutionTime = 1150.64 s  ClockTime = 1177 s

Time = 1991

smoothSolver:  Solving for Ux, Initial residual = 0.00449335, Final residual = 0.000320921, No Iterations 2
smoothSolver:  Solving for Uy, Initial residual = 0.00198181, Final residual = 6.92919e-05, No Iterations 1
smoothSolver:  Solving for Uz, Initial residual = 0.0027608, Final residual = 0.000223465, No Iterations 1
GAMG:  Solving for p, Initial residual = 0.000566132, Final residual = 4.07391e-05, No Iterations 2
time step continuity errors : sum local = 2.57155e-05, global = 3.80954e-06, cumulative = 0.0338552
smoothSolver:  Solving for epsilon, Initial residual = 0.000377641, Final residual = 1.22465e-05, No Iterations 2
smoothSolver:  Solving for k, Initial residual = 0.000663244, Final residual = 3.48679e-05, No Iterations 2
ExecutionTime = 1151.15 s  ClockTime = 1177 s

Time = 1992

smoothSolver:  Solving for Ux, Initial residual = 0.00449297, Final residual = 0.000320943, No Iterations 2
smoothSolver:  Solving for Uy, Initial residual = 0.00217327, Final residual = 7.58988e-05, No Iterations 1
smoothSolver:  Solving for Uz, Initial residual = 0.00276185, Final residual = 0.00022626, No Iterations 1
GAMG:  Solving for p, Initial residual = 0.000586576, Final residual = 4.25754e-05, No Iterations 2
time step continuity errors : sum local = 2.68684e-05, global = 4.32919e-06, cumulative = 0.0338595
smoothSolver:  Solving for epsilon, Initial residual = 0.000320601, Final residual = 1.25609e-05, No Iterations 2
smoothSolver:  Solving for k, Initial residual = 0.000700983, Final residual = 3.51334e-05, No Iterations 2
ExecutionTime = 1151.67 s  ClockTime = 1178 s

Time = 1993

smoothSolver:  Solving for Ux, Initial residual = 0.00449277, Final residual = 0.000321091, No Iterations 2
smoothSolver:  Solving for Uy, Initial residual = 0.00203199, Final residual = 6.92589e-05, No Iterations 1
smoothSolver:  Solving for Uz, Initial residual = 0.00291067, Final residual = 0.000228229, No Iterations 1
GAMG:  Solving for p, Initial residual = 0.000571016, Final residual = 4.1124e-05, No Iterations 2
time step continuity errors : sum local = 2.59791e-05, global = 3.80991e-06, cumulative = 0.0338633
smoothSolver:  Solving for epsilon, Initial residual = 0.000377035, Final residual = 1.22425e-05, No Iterations 2
smoothSolver:  Solving for k, Initial residual = 0.000665573, Final residual = 3.49964e-05, No Iterations 2
ExecutionTime = 1152.16 s  ClockTime = 1178 s

Time = 1994

smoothSolver:  Solving for Ux, Initial residual = 0.00449246, Final residual = 0.000321104, No Iterations 2
smoothSolver:  Solving for Uy, Initial residual = 0.00219214, Final residual = 7.59007e-05, No Iterations 1
smoothSolver:  Solving for Uz, Initial residual = 0.00289062, Final residual = 0.000235572, No Iterations 1
GAMG:  Solving for p, Initial residual = 0.000596023, Final residual = 4.27238e-05, No Iterations 2
time step continuity errors : sum local = 2.69847e-05, global = 4.35329e-06, cumulative = 0.0338677
smoothSolver:  Solving for epsilon, Initial residual = 0.000321114, Final residual = 1.25276e-05, No Iterations 2
smoothSolver:  Solving for k, Initial residual = 0.000700599, Final residual = 3.48656e-05, No Iterations 2
ExecutionTime = 1152.67 s  ClockTime = 1179 s

Time = 1995

smoothSolver:  Solving for Ux, Initial residual = 0.00449214, Final residual = 0.000321254, No Iterations 2
smoothSolver:  Solving for Uy, Initial residual = 0.00204281, Final residual = 7.0437e-05, No Iterations 1
smoothSolver:  Solving for Uz, Initial residual = 0.00288212, Final residual = 0.000231577, No Iterations 1
GAMG:  Solving for p, Initial residual = 0.00058191, Final residual = 4.06901e-05, No Iterations 2
time step continuity errors : sum local = 2.57258e-05, global = 3.74772e-06, cumulative = 0.0338714
smoothSolver:  Solving for epsilon, Initial residual = 0.000377287, Final residual = 1.22509e-05, No Iterations 2
smoothSolver:  Solving for k, Initial residual = 0.000657866, Final residual = 3.50484e-05, No Iterations 2
ExecutionTime = 1153.17 s  ClockTime = 1179 s

Time = 1996

smoothSolver:  Solving for Ux, Initial residual = 0.00449189, Final residual = 0.000321262, No Iterations 2
smoothSolver:  Solving for Uy, Initial residual = 0.00221362, Final residual = 7.70449e-05, No Iterations 1
smoothSolver:  Solving for Uz, Initial residual = 0.00279116, Final residual = 0.0002357, No Iterations 1
GAMG:  Solving for p, Initial residual = 0.00060167, Final residual = 4.23026e-05, No Iterations 2
time step continuity errors : sum local = 2.67411e-05, global = 4.32713e-06, cumulative = 0.0338757
smoothSolver:  Solving for epsilon, Initial residual = 0.000320722, Final residual = 1.25391e-05, No Iterations 2
smoothSolver:  Solving for k, Initial residual = 0.000696086, Final residual = 3.49941e-05, No Iterations 2
ExecutionTime = 1153.68 s  ClockTime = 1180 s

Time = 1997

smoothSolver:  Solving for Ux, Initial residual = 0.00449144, Final residual = 0.000321397, No Iterations 2
smoothSolver:  Solving for Uy, Initial residual = 0.00206803, Final residual = 7.10955e-05, No Iterations 1
smoothSolver:  Solving for Uz, Initial residual = 0.00282913, Final residual = 0.000223203, No Iterations 1
GAMG:  Solving for p, Initial residual = 0.000587169, Final residual = 3.99969e-05, No Iterations 2
time step continuity errors : sum local = 2.53092e-05, global = 3.66429e-06, cumulative = 0.0338794
smoothSolver:  Solving for epsilon, Initial residual = 0.000376543, Final residual = 1.22225e-05, No Iterations 2
smoothSolver:  Solving for k, Initial residual = 0.000663941, Final residual = 3.4722e-05, No Iterations 2
ExecutionTime = 1154.19 s  ClockTime = 1180 s

Time = 1998

smoothSolver:  Solving for Ux, Initial residual = 0.00449104, Final residual = 0.000321408, No Iterations 2
smoothSolver:  Solving for Uy, Initial residual = 0.00225276, Final residual = 7.86218e-05, No Iterations 1
smoothSolver:  Solving for Uz, Initial residual = 0.00280225, Final residual = 0.000227462, No Iterations 1
GAMG:  Solving for p, Initial residual = 0.000609307, Final residual = 4.08202e-05, No Iterations 2
time step continuity errors : sum local = 2.58252e-05, global = 4.13755e-06, cumulative = 0.0338835
smoothSolver:  Solving for epsilon, Initial residual = 0.000320625, Final residual = 1.25406e-05, No Iterations 2
smoothSolver:  Solving for k, Initial residual = 0.000700831, Final residual = 3.50122e-05, No Iterations 2
ExecutionTime = 1154.68 s  ClockTime = 1181 s

Time = 1999

smoothSolver:  Solving for Ux, Initial residual = 0.00449054, Final residual = 0.000321526, No Iterations 2
smoothSolver:  Solving for Uy, Initial residual = 0.00213434, Final residual = 7.22233e-05, No Iterations 1
smoothSolver:  Solving for Uz, Initial residual = 0.00294288, Final residual = 0.000225948, No Iterations 1
GAMG:  Solving for p, Initial residual = 0.000594412, Final residual = 3.94662e-05, No Iterations 2
time step continuity errors : sum local = 2.49941e-05, global = 3.67784e-06, cumulative = 0.0338872
smoothSolver:  Solving for epsilon, Initial residual = 0.00037748, Final residual = 1.2255e-05, No Iterations 2
smoothSolver:  Solving for k, Initial residual = 0.000662971, Final residual = 3.4945e-05, No Iterations 2
ExecutionTime = 1155.16 s  ClockTime = 1181 s

Time = 2000

smoothSolver:  Solving for Ux, Initial residual = 0.00449003, Final residual = 0.000321524, No Iterations 2
smoothSolver:  Solving for Uy, Initial residual = 0.00231043, Final residual = 7.82732e-05, No Iterations 1
smoothSolver:  Solving for Uz, Initial residual = 0.00294594, Final residual = 0.000234363, No Iterations 1
GAMG:  Solving for p, Initial residual = 0.000623545, Final residual = 4.16709e-05, No Iterations 2
time step continuity errors : sum local = 2.63857e-05, global = 4.28756e-06, cumulative = 0.0338915
smoothSolver:  Solving for epsilon, Initial residual = 0.000321295, Final residual = 1.25582e-05, No Iterations 2
smoothSolver:  Solving for k, Initial residual = 0.000702633, Final residual = 3.47013e-05, No Iterations 2
ExecutionTime = 1156.44 s  ClockTime = 1183 s

End

