/*---------------------------------------------------------------------------*\
| =========                 |                                                 |
| \\      /  F ield         | OpenFOAM: The Open Source CFD Toolbox           |
|  \\    /   O peration     | Version:  v2012                                 |
|   \\  /    A nd           | Website:  www.openfoam.com                      |
|    \\/     M anipulation  |                                                 |
\*---------------------------------------------------------------------------*/
Build  : _7bdb509494-20201222 OPENFOAM=2012
Arch   : "LSB;label=32;scalar=64"
Exec   : /home/dockeruser/OpenFOAM/OpenFOAM-v2012/platforms/linux64GccDPInt32Opt/bin/simpleFoam
Date   : Aug 25 2022
Time   : 21:02:44
Host   : 2d5918da8f71
PID    : 5161
I/O    : uncollated
Case   : /foamdata/of2012_projects/hotRoom6C_ABL
nProcs : 1
trapFpe: Floating point exception trapping enabled (FOAM_SIGFPE).
fileModificationChecking : Monitoring run-time modified files using timeStampMaster (fileModificationSkew 5, maxFileModificationPolls 20)
allowSystemOperations : Allowing user-supplied system call operations

// * * * * * * * * * * * * * * * * * * * * * * * * * * * * * * * * * * * * * //
Create time

Create mesh for time = 0


SIMPLE: convergence criteria
    field p	 tolerance 0.01
    field U	 tolerance 0.001
    field "(k|epsilon|omega|f|v2)"	 tolerance 0.001

Reading field p

Reading field U

Reading/calculating face flux field phi

Selecting incompressible transport model Newtonian
Selecting turbulence model type RAS
Selecting RAS turbulence model kEpsilon
RAS
{
    RASModel        kEpsilon;
    turbulence      on;
    printCoeffs     on;
    Cmu             0.09;
    C1              1.44;
    C2              1.92;
    C3              0;
    sigmak          1;
    sigmaEps        1.3;
}

No MRF models present

No finite volume options present

Starting time loop

--> FOAM Warning :
    From simpleFunctionObject::simpleFunctionObject
    in file simpleFunctionObject/simpleFunctionObject.C at line 141
    'outputControlMode' not found in velocity
Assuming: timeStep
--> FOAM Warning :
    From simpleFunctionObject::simpleFunctionObject
    in file simpleFunctionObject/simpleFunctionObject.C at line 150
    'outputInterval' not found in velocity
Assuming: 1
--> FOAM Warning :
    From timelineFunctionObject::timelineFunctionObject
    in file timelineFunctionObject/timelineFunctionObject.C at line 94
    No entry 'writeStartTime' in "/foamdata/of2012_projects/hotRoom6C_ABL/system/controlDict.functions.velocity". Assuming 'no'
swak4Foam: Setting default mesh
--> FOAM Warning :
    From simpleFunctionObject::simpleFunctionObject
    in file simpleFunctionObject/simpleFunctionObject.C at line 141
    'outputControlMode' not found in pressure
Assuming: timeStep
--> FOAM Warning :
    From simpleFunctionObject::simpleFunctionObject
    in file simpleFunctionObject/simpleFunctionObject.C at line 150
    'outputInterval' not found in pressure
Assuming: 1
--> FOAM Warning :
    From timelineFunctionObject::timelineFunctionObject
    in file timelineFunctionObject/timelineFunctionObject.C at line 94
    No entry 'writeStartTime' in "/foamdata/of2012_projects/hotRoom6C_ABL/system/controlDict.functions.pressure". Assuming 'no'
--> FOAM Warning :
    From simpleFunctionObject::simpleFunctionObject
    in file simpleFunctionObject/simpleFunctionObject.C at line 141
    'outputControlMode' not found in tke
Assuming: timeStep
--> FOAM Warning :
    From simpleFunctionObject::simpleFunctionObject
    in file simpleFunctionObject/simpleFunctionObject.C at line 150
    'outputInterval' not found in tke
Assuming: 1
--> FOAM Warning :
    From timelineFunctionObject::timelineFunctionObject
    in file timelineFunctionObject/timelineFunctionObject.C at line 94
    No entry 'writeStartTime' in "/foamdata/of2012_projects/hotRoom6C_ABL/system/controlDict.functions.tke". Assuming 'no'
Time = 1

smoothSolver:  Solving for Ux, Initial residual = 1, Final residual = 0.0913304, No Iterations 2
smoothSolver:  Solving for Uy, Initial residual = 1, Final residual = 0.0809594, No Iterations 2
smoothSolver:  Solving for Uz, Initial residual = 1, Final residual = 0.0638687, No Iterations 5
GAMG:  Solving for p, Initial residual = 1, Final residual = 0.0374046, No Iterations 4
time step continuity errors : sum local = 0.00147383, global = -0.00013578, cumulative = -0.00013578
smoothSolver:  Solving for epsilon, Initial residual = 0.968524, Final residual = 5.18565e-05, No Iterations 1
smoothSolver:  Solving for k, Initial residual = 1, Final residual = 0.0274334, No Iterations 1
bounding k, min: -0.291024 max: 0.375 average: 0.0537595
ExecutionTime = 3.74 s  ClockTime = 3 s

Expression velocity : swak4Foam: Allocating new repository for sampledMeshes
swak4Foam: Allocating new repository for sampledGlobalVariables
 min=-0.72747 weightedQuantile0.1=-0.441381 weightedAverage=0.0432856 weightedQuantile0.9=0.748571 max=5.2704
Expression pressure :  min=0.00154184 weightedQuantile0.1=0.015 weightedAverage=0.0795911 weightedQuantile0.9=0.142 max=0.163135
Expression tke :  min=0.00382959 weightedQuantile0.1=0.0337971 weightedAverage=0.0541404 weightedQuantile0.9=0.0437332 max=0.359361
Time = 2

smoothSolver:  Solving for Ux, Initial residual = 0.355624, Final residual = 0.0109759, No Iterations 2
smoothSolver:  Solving for Uy, Initial residual = 0.556937, Final residual = 0.0488368, No Iterations 1
smoothSolver:  Solving for Uz, Initial residual = 0.683663, Final residual = 0.059513, No Iterations 1
GAMG:  Solving for p, Initial residual = 0.695761, Final residual = 0.0458976, No Iterations 4
time step continuity errors : sum local = 0.0581128, global = 0.0131032, cumulative = 0.0129674
smoothSolver:  Solving for epsilon, Initial residual = 0.902167, Final residual = 0.00644839, No Iterations 1
bounding epsilon, min: -11.4218 max: 14.855 average: 0.285446
smoothSolver:  Solving for k, Initial residual = 0.352705, Final residual = 0.0289051, No Iterations 1
bounding k, min: -0.199193 max: 0.375 average: 0.0380668
ExecutionTime = 4.73 s  ClockTime = 5 s

Expression velocity :  min=1.29145 weightedQuantile0.1=6.84 weightedAverage=17.2612 weightedQuantile0.9=36.2429 max=95.2862
Expression pressure :  min=-29.5895 weightedQuantile0.1=-27.1 weightedAverage=-15.5508 weightedQuantile0.9=-3.6 max=-0.332933
Expression tke :  min=0.000338543 weightedQuantile0.1=0.0144889 weightedAverage=0.0392458 weightedQuantile0.9=0.056625 max=0.329439
Time = 3

smoothSolver:  Solving for Ux, Initial residual = 0.12509, Final residual = 0.00420534, No Iterations 2
smoothSolver:  Solving for Uy, Initial residual = 0.381129, Final residual = 0.00996784, No Iterations 2
smoothSolver:  Solving for Uz, Initial residual = 0.484308, Final residual = 0.0110075, No Iterations 2
GAMG:  Solving for p, Initial residual = 0.804475, Final residual = 0.0578577, No Iterations 4
time step continuity errors : sum local = 0.0607051, global = 0.0127957, cumulative = 0.0257631
smoothSolver:  Solving for epsilon, Initial residual = 0.387084, Final residual = 0.0291359, No Iterations 1
bounding epsilon, min: -15.0905 max: 14.855 average: 0.347105
smoothSolver:  Solving for k, Initial residual = 0.334382, Final residual = 0.0274794, No Iterations 1
bounding k, min: -0.479743 max: 0.600707 average: 0.0351052
ExecutionTime = 5.97 s  ClockTime = 6 s

Expression velocity :  min=0.617136 weightedQuantile0.1=11.9187 weightedAverage=19.0933 weightedQuantile0.9=38.23 max=88.9393
Expression pressure :  min=-106.493 weightedQuantile0.1=-98.108 weightedAverage=-63.3906 weightedQuantile0.9=-26.8789 max=4.77883
Expression tke :  min=0.00296832 weightedQuantile0.1=0.0131664 weightedAverage=0.0401812 weightedQuantile0.9=0.0830769 max=0.600707
Time = 4

smoothSolver:  Solving for Ux, Initial residual = 0.103318, Final residual = 0.00206622, No Iterations 2
smoothSolver:  Solving for Uy, Initial residual = 0.317807, Final residual = 0.00698176, No Iterations 2
smoothSolver:  Solving for Uz, Initial residual = 0.553987, Final residual = 0.007784, No Iterations 2
GAMG:  Solving for p, Initial residual = 0.375329, Final residual = 0.0157703, No Iterations 2
time step continuity errors : sum local = 0.0363521, global = 0.0120104, cumulative = 0.0377734
smoothSolver:  Solving for epsilon, Initial residual = 0.315408, Final residual = 0.0241808, No Iterations 1
bounding epsilon, min: -22.5158 max: 14.855 average: 0.356978
smoothSolver:  Solving for k, Initial residual = 0.311261, Final residual = 0.0230576, No Iterations 1
bounding k, min: -0.675596 max: 5.78225 average: 0.0402865
ExecutionTime = 6.85 s  ClockTime = 7 s

Expression velocity :  min=2.8884 weightedQuantile0.1=13.9087 weightedAverage=20.5733 weightedQuantile0.9=38.8294 max=86.2625
Expression pressure :  min=-145.726 weightedQuantile0.1=-133.605 weightedAverage=-89.9218 weightedQuantile0.9=-47.1641 max=-1.25188
Expression tke :  min=0.000447027 weightedQuantile0.1=0.011596 weightedAverage=0.0461546 weightedQuantile0.9=0.107547 max=5.78225
Time = 5

smoothSolver:  Solving for Ux, Initial residual = 0.104896, Final residual = 0.00269304, No Iterations 2
smoothSolver:  Solving for Uy, Initial residual = 0.232658, Final residual = 0.0213352, No Iterations 1
smoothSolver:  Solving for Uz, Initial residual = 0.415824, Final residual = 0.0391155, No Iterations 1
GAMG:  Solving for p, Initial residual = 0.219725, Final residual = 0.0121146, No Iterations 2
time step continuity errors : sum local = 0.0376589, global = 0.011251, cumulative = 0.0490245
smoothSolver:  Solving for epsilon, Initial residual = 0.385017, Final residual = 0.0151372, No Iterations 1
bounding epsilon, min: -22.7367 max: 175.248 average: 0.505557
smoothSolver:  Solving for k, Initial residual = 0.370286, Final residual = 0.0199827, No Iterations 1
bounding k, min: -0.637775 max: 83.0412 average: 0.0583076
ExecutionTime = 7.73 s  ClockTime = 8 s

Expression velocity :  min=5.08936 weightedQuantile0.1=15.1556 weightedAverage=21.6218 weightedQuantile0.9=37.7944 max=82.2663
Expression pressure :  min=-132.915 weightedQuantile0.1=-121.92 weightedAverage=-86.0473 weightedQuantile0.9=-51.2454 max=0.718516
Expression tke :  min=0.00277047 weightedQuantile0.1=0.0115915 weightedAverage=0.0643461 weightedQuantile0.9=0.137849 max=83.0412
Time = 6

smoothSolver:  Solving for Ux, Initial residual = 0.0962982, Final residual = 0.00280867, No Iterations 2
smoothSolver:  Solving for Uy, Initial residual = 0.199215, Final residual = 0.0153299, No Iterations 1
smoothSolver:  Solving for Uz, Initial residual = 0.36047, Final residual = 0.0353064, No Iterations 1
GAMG:  Solving for p, Initial residual = 0.174537, Final residual = 0.00873457, No Iterations 2
time step continuity errors : sum local = 0.0314467, global = 0.00947309, cumulative = 0.0584976
smoothSolver:  Solving for epsilon, Initial residual = 0.296498, Final residual = 0.0291142, No Iterations 1
bounding epsilon, min: -23.4373 max: 471.946 average: 0.669268
smoothSolver:  Solving for k, Initial residual = 0.371929, Final residual = 0.0120601, No Iterations 2
bounding k, min: -3.86535 max: 165.266 average: 0.106275
ExecutionTime = 8.65 s  ClockTime = 9 s

Expression velocity :  min=6.93298 weightedQuantile0.1=16.2571 weightedAverage=22.4946 weightedQuantile0.9=39.4 max=77.312
Expression pressure :  min=-121.967 weightedQuantile0.1=-113.725 weightedAverage=-84.7933 weightedQuantile0.9=-56.5893 max=4.05315
Expression tke :  min=7.12354e-06 weightedQuantile0.1=0.100271 weightedAverage=0.11257 weightedQuantile0.9=0.902437 max=165.266
Time = 7

smoothSolver:  Solving for Ux, Initial residual = 0.0915293, Final residual = 0.00256893, No Iterations 2
smoothSolver:  Solving for Uy, Initial residual = 0.198918, Final residual = 0.0144723, No Iterations 1
smoothSolver:  Solving for Uz, Initial residual = 0.298297, Final residual = 0.0280015, No Iterations 1
GAMG:  Solving for p, Initial residual = 0.153106, Final residual = 0.00334056, No Iterations 2
time step continuity errors : sum local = 0.0131928, global = -0.00385356, cumulative = 0.054644
smoothSolver:  Solving for epsilon, Initial residual = 0.280828, Final residual = 0.00873727, No Iterations 2
bounding epsilon, min: -17.6784 max: 574.062 average: 0.941358
smoothSolver:  Solving for k, Initial residual = 0.329556, Final residual = 0.0150965, No Iterations 2
bounding k, min: -1.16604 max: 159.566 average: 0.172305
ExecutionTime = 9.89 s  ClockTime = 10 s

Expression velocity :  min=8.34684 weightedQuantile0.1=17.2205 weightedAverage=23.3252 weightedQuantile0.9=40.1969 max=75.9447
Expression pressure :  min=-129.882 weightedQuantile0.1=-118.246 weightedAverage=-91.4256 weightedQuantile0.9=-66.4012 max=1.02328
Expression tke :  min=0.00116 weightedQuantile0.1=0.100518 weightedAverage=0.178361 weightedQuantile0.9=0.904659 max=159.566
Time = 8

smoothSolver:  Solving for Ux, Initial residual = 0.103655, Final residual = 0.00909361, No Iterations 1
smoothSolver:  Solving for Uy, Initial residual = 0.464244, Final residual = 0.0292887, No Iterations 1
smoothSolver:  Solving for Uz, Initial residual = 0.321702, Final residual = 0.0274608, No Iterations 1
GAMG:  Solving for p, Initial residual = 0.139165, Final residual = 0.00709386, No Iterations 2
time step continuity errors : sum local = 0.0301278, global = -0.00596569, cumulative = 0.0486783
smoothSolver:  Solving for epsilon, Initial residual = 0.103796, Final residual = 0.00400178, No Iterations 2
bounding epsilon, min: -21.7433 max: 651.692 average: 1.26746
smoothSolver:  Solving for k, Initial residual = 0.428753, Final residual = 0.023799, No Iterations 2
bounding k, min: -2.41319 max: 155.041 average: 0.248192
ExecutionTime = 10.77 s  ClockTime = 11 s

Expression velocity :  min=9.02402 weightedQuantile0.1=17.9134 weightedAverage=24.0119 weightedQuantile0.9=40.3 max=74.3987
Expression pressure :  min=-125.052 weightedQuantile0.1=-103.761 weightedAverage=-78.682 weightedQuantile0.9=-57.98 max=6.30236
Expression tke :  min=0.000910859 weightedQuantile0.1=0.100903 weightedAverage=0.255008 weightedQuantile0.9=0.908128 max=155.041
Time = 9

smoothSolver:  Solving for Ux, Initial residual = 0.105386, Final residual = 0.00318315, No Iterations 2
smoothSolver:  Solving for Uy, Initial residual = 0.594632, Final residual = 0.0562462, No Iterations 1
smoothSolver:  Solving for Uz, Initial residual = 0.384079, Final residual = 0.0375339, No Iterations 1
GAMG:  Solving for p, Initial residual = 0.125963, Final residual = 0.00557886, No Iterations 2
time step continuity errors : sum local = 0.0248573, global = -0.00631429, cumulative = 0.042364
smoothSolver:  Solving for epsilon, Initial residual = 0.0974076, Final residual = 0.00547268, No Iterations 1
bounding epsilon, min: -46.3354 max: 679.994 average: 1.81654
smoothSolver:  Solving for k, Initial residual = 0.312967, Final residual = 0.018016, No Iterations 2
bounding k, min: -2.66922 max: 151.124 average: 0.325859
ExecutionTime = 11.64 s  ClockTime = 12 s

Expression velocity :  min=9.6032 weightedQuantile0.1=18.6405 weightedAverage=24.6725 weightedQuantile0.9=41.2 max=72.7253
Expression pressure :  min=-262.007 weightedQuantile0.1=-90.9206 weightedAverage=-68.6329 weightedQuantile0.9=-52.068 max=7.48663
Expression tke :  min=0.000216545 weightedQuantile0.1=0.101281 weightedAverage=0.331169 weightedQuantile0.9=0.911531 max=151.124
Time = 10

smoothSolver:  Solving for Ux, Initial residual = 0.0914687, Final residual = 0.00279222, No Iterations 2
smoothSolver:  Solving for Uy, Initial residual = 0.656545, Final residual = 0.0500513, No Iterations 1
smoothSolver:  Solving for Uz, Initial residual = 0.737605, Final residual = 0.0152463, No Iterations 2
GAMG:  Solving for p, Initial residual = 0.111532, Final residual = 0.00257748, No Iterations 2
time step continuity errors : sum local = 0.0124846, global = -0.00224162, cumulative = 0.0401224
smoothSolver:  Solving for epsilon, Initial residual = 0.149331, Final residual = 0.00383749, No Iterations 1
bounding epsilon, min: -30.948 max: 801.805 average: 2.4199
smoothSolver:  Solving for k, Initial residual = 0.35117, Final residual = 0.0112211, No Iterations 2
bounding k, min: -3.24149 max: 140.251 average: 0.411356
ExecutionTime = 12.53 s  ClockTime = 13 s

Expression velocity :  min=10.1895 weightedQuantile0.1=19.3874 weightedAverage=25.2843 weightedQuantile0.9=41.35 max=70.9626
Expression pressure :  min=-2521.09 weightedQuantile0.1=-85.3672 weightedAverage=-64.3646 weightedQuantile0.9=-44.0526 max=5.97831
Expression tke :  min=0.000136597 weightedQuantile0.1=0.10176 weightedAverage=0.417039 weightedQuantile0.9=0.915844 max=140.251
Time = 11

smoothSolver:  Solving for Ux, Initial residual = 0.0729808, Final residual = 0.00243935, No Iterations 2
smoothSolver:  Solving for Uy, Initial residual = 0.347513, Final residual = 0.0204527, No Iterations 2
smoothSolver:  Solving for Uz, Initial residual = 0.322384, Final residual = 0.0168959, No Iterations 2
GAMG:  Solving for p, Initial residual = 0.0768118, Final residual = 0.00284628, No Iterations 2
time step continuity errors : sum local = 0.0315341, global = 0.00287924, cumulative = 0.0430016
smoothSolver:  Solving for epsilon, Initial residual = 0.122572, Final residual = 0.00372271, No Iterations 2
bounding epsilon, min: -42.6826 max: 1422.99 average: 3.22689
smoothSolver:  Solving for k, Initial residual = 0.145988, Final residual = 0.00937562, No Iterations 2
bounding k, min: -4.02999 max: 132.062 average: 0.512704
ExecutionTime = 13.43 s  ClockTime = 13 s

Expression velocity :  min=10.8864 weightedQuantile0.1=20.2379 weightedAverage=25.9489 weightedQuantile0.9=41.7667 max=69.1758
Expression pressure :  min=-2229.51 weightedQuantile0.1=-94.0799 weightedAverage=-68.47 weightedQuantile0.9=-44.2194 max=2.73413
Expression tke :  min=0.000173854 weightedQuantile0.1=0.102208 weightedAverage=0.518809 weightedQuantile0.9=0.919869 max=132.062
Time = 12

smoothSolver:  Solving for Ux, Initial residual = 0.0695599, Final residual = 0.00685476, No Iterations 1
smoothSolver:  Solving for Uy, Initial residual = 0.330523, Final residual = 0.0327631, No Iterations 1
smoothSolver:  Solving for Uz, Initial residual = 0.314807, Final residual = 0.00661638, No Iterations 2
GAMG:  Solving for p, Initial residual = 0.0719011, Final residual = 0.00314347, No Iterations 2
time step continuity errors : sum local = 0.0333179, global = 0.00444525, cumulative = 0.0474469
smoothSolver:  Solving for epsilon, Initial residual = 0.0879122, Final residual = 0.00293514, No Iterations 2
bounding epsilon, min: -24.613 max: 2381.86 average: 4.36022
smoothSolver:  Solving for k, Initial residual = 0.110888, Final residual = 0.00812454, No Iterations 2
bounding k, min: -4.81162 max: 130.288 average: 0.606032
ExecutionTime = 14.31 s  ClockTime = 14 s

Expression velocity :  min=10.5729 weightedQuantile0.1=21.1453 weightedAverage=26.6271 weightedQuantile0.9=42.3 max=68.6911
Expression pressure :  min=-1993.08 weightedQuantile0.1=-107.087 weightedAverage=-74.9014 weightedQuantile0.9=-45.7406 max=41.1563
Expression tke :  min=0.000592051 weightedQuantile0.1=0.102738 weightedAverage=0.610719 weightedQuantile0.9=0.924642 max=130.288
Time = 13

smoothSolver:  Solving for Ux, Initial residual = 0.06754, Final residual = 0.00194699, No Iterations 2
smoothSolver:  Solving for Uy, Initial residual = 0.293577, Final residual = 0.0259349, No Iterations 1
smoothSolver:  Solving for Uz, Initial residual = 0.316121, Final residual = 0.0313551, No Iterations 1
GAMG:  Solving for p, Initial residual = 0.064893, Final residual = 0.00312452, No Iterations 2
time step continuity errors : sum local = 0.0357098, global = 0.00979422, cumulative = 0.0572411
smoothSolver:  Solving for epsilon, Initial residual = 0.0767026, Final residual = 0.00214539, No Iterations 2
bounding epsilon, min: -23.1571 max: 3191.58 average: 5.51359
smoothSolver:  Solving for k, Initial residual = 0.102632, Final residual = 0.00595496, No Iterations 2
bounding k, min: -3.30711 max: 130.619 average: 0.696069
ExecutionTime = 15.2 s  ClockTime = 15 s

Expression velocity :  min=9.44727 weightedQuantile0.1=22.1779 weightedAverage=27.44 weightedQuantile0.9=42.85 max=69.0043
Expression pressure :  min=-1792.61 weightedQuantile0.1=-128.543 weightedAverage=-88.1342 weightedQuantile0.9=-53.0964 max=75.9866
Expression tke :  min=0.000339969 weightedQuantile0.1=0.103794 weightedAverage=0.700115 weightedQuantile0.9=0.934143 max=130.619
Time = 14

smoothSolver:  Solving for Ux, Initial residual = 0.0803273, Final residual = 0.00777515, No Iterations 1
smoothSolver:  Solving for Uy, Initial residual = 0.306218, Final residual = 0.0275553, No Iterations 1
smoothSolver:  Solving for Uz, Initial residual = 0.315507, Final residual = 0.00822074, No Iterations 2
GAMG:  Solving for p, Initial residual = 0.059629, Final residual = 0.00281406, No Iterations 2
time step continuity errors : sum local = 0.0379598, global = -0.00297325, cumulative = 0.0542679
smoothSolver:  Solving for epsilon, Initial residual = 0.0729846, Final residual = 0.00182051, No Iterations 2
bounding epsilon, min: -22.9116 max: 3902.75 average: 6.47723
smoothSolver:  Solving for k, Initial residual = 0.113547, Final residual = 0.00542599, No Iterations 2
bounding k, min: -0.801318 max: 184.596 average: 0.810191
ExecutionTime = 16.08 s  ClockTime = 16 s

Expression velocity :  min=6.77766 weightedQuantile0.1=23.1402 weightedAverage=28.2302 weightedQuantile0.9=43.2286 max=69.4347
Expression pressure :  min=-1629.84 weightedQuantile0.1=-149.349 weightedAverage=-106.173 weightedQuantile0.9=-65.302 max=105.686
Expression tke :  min=2.51357e-05 weightedQuantile0.1=0.10577 weightedAverage=0.813108 weightedQuantile0.9=0.951928 max=184.596
Time = 15

smoothSolver:  Solving for Ux, Initial residual = 0.0783988, Final residual = 0.00309455, No Iterations 2
smoothSolver:  Solving for Uy, Initial residual = 0.260909, Final residual = 0.0255948, No Iterations 1
smoothSolver:  Solving for Uz, Initial residual = 0.353522, Final residual = 0.00984766, No Iterations 2
GAMG:  Solving for p, Initial residual = 0.0580529, Final residual = 0.00247792, No Iterations 2
time step continuity errors : sum local = 0.0247703, global = -0.000596746, cumulative = 0.0536711
smoothSolver:  Solving for epsilon, Initial residual = 0.0608293, Final residual = 0.00172033, No Iterations 2
bounding epsilon, min: -24.7582 max: 8246.08 average: 7.81167
smoothSolver:  Solving for k, Initial residual = 0.115386, Final residual = 0.00726958, No Iterations 2
bounding k, min: -2.52888 max: 135.828 average: 0.908217
ExecutionTime = 16.97 s  ClockTime = 17 s

Expression velocity :  min=11.8969 weightedQuantile0.1=24.1243 weightedAverage=29.0542 weightedQuantile0.9=43.6125 max=69.7102
Expression pressure :  min=-1455.05 weightedQuantile0.1=-146.249 weightedAverage=-103.457 weightedQuantile0.9=-63.672 max=136.487
Expression tke :  min=0.000465627 weightedQuantile0.1=0.107244 weightedAverage=0.911005 weightedQuantile0.9=0.965199 max=135.828
Time = 16

smoothSolver:  Solving for Ux, Initial residual = 0.0639014, Final residual = 0.00267322, No Iterations 2
smoothSolver:  Solving for Uy, Initial residual = 0.236153, Final residual = 0.0226881, No Iterations 1
smoothSolver:  Solving for Uz, Initial residual = 0.296121, Final residual = 0.0258178, No Iterations 1
GAMG:  Solving for p, Initial residual = 0.0515776, Final residual = 0.00211506, No Iterations 2
time step continuity errors : sum local = 0.0225458, global = -0.00471747, cumulative = 0.0489536
smoothSolver:  Solving for epsilon, Initial residual = 0.0527886, Final residual = 0.00206982, No Iterations 2
bounding epsilon, min: -24.0067 max: 3274.18 average: 8.26998
smoothSolver:  Solving for k, Initial residual = 0.0855778, Final residual = 0.00636736, No Iterations 2
bounding k, min: -0.640853 max: 137.766 average: 1.01316
ExecutionTime = 17.85 s  ClockTime = 18 s

Expression velocity :  min=11.5982 weightedQuantile0.1=24.9481 weightedAverage=29.7446 weightedQuantile0.9=43.76 max=69.7618
Expression pressure :  min=-1295.41 weightedQuantile0.1=-134.233 weightedAverage=-96.5427 weightedQuantile0.9=-62.3811 max=173.565
Expression tke :  min=0.000407062 weightedQuantile0.1=0.111136 weightedAverage=1.01489 weightedQuantile0.9=1.00291 max=137.766
Time = 17

smoothSolver:  Solving for Ux, Initial residual = 0.0517548, Final residual = 0.00254145, No Iterations 2
smoothSolver:  Solving for Uy, Initial residual = 0.209212, Final residual = 0.00685619, No Iterations 2
smoothSolver:  Solving for Uz, Initial residual = 0.217381, Final residual = 0.020292, No Iterations 1
GAMG:  Solving for p, Initial residual = 0.0476185, Final residual = 0.00362553, No Iterations 2
time step continuity errors : sum local = 0.0375672, global = -0.0128069, cumulative = 0.0361467
smoothSolver:  Solving for epsilon, Initial residual = 0.0490065, Final residual = 0.00190655, No Iterations 2
bounding epsilon, min: -23.7018 max: 3796.68 average: 9.16854
smoothSolver:  Solving for k, Initial residual = 0.0610035, Final residual = 0.00521362, No Iterations 2
bounding k, min: -0.873392 max: 139.445 average: 1.11048
ExecutionTime = 18.74 s  ClockTime = 19 s

Expression velocity :  min=10.9677 weightedQuantile0.1=25.506 weightedAverage=30.2287 weightedQuantile0.9=43.8333 max=69.6039
Expression pressure :  min=-1132.22 weightedQuantile0.1=-99.8198 weightedAverage=-76.8985 weightedQuantile0.9=-54.022 max=220.976
Expression tke :  min=0.000371789 weightedQuantile0.1=0.115547 weightedAverage=1.11204 weightedQuantile0.9=1.34864 max=139.445
Time = 18

smoothSolver:  Solving for Ux, Initial residual = 0.0452846, Final residual = 0.0020731, No Iterations 2
smoothSolver:  Solving for Uy, Initial residual = 0.217705, Final residual = 0.0201111, No Iterations 1
smoothSolver:  Solving for Uz, Initial residual = 0.23044, Final residual = 0.00825202, No Iterations 2
GAMG:  Solving for p, Initial residual = 0.0433607, Final residual = 0.00417502, No Iterations 2
time step continuity errors : sum local = 0.0407931, global = -0.0158862, cumulative = 0.0202605
smoothSolver:  Solving for epsilon, Initial residual = 0.0474927, Final residual = 0.00166342, No Iterations 2
bounding epsilon, min: -24.244 max: 3427.35 average: 10.1576
smoothSolver:  Solving for k, Initial residual = 0.0718334, Final residual = 0.00424908, No Iterations 2
bounding k, min: -0.712569 max: 141.217 average: 1.20489
ExecutionTime = 19.63 s  ClockTime = 20 s

Expression velocity :  min=13.2664 weightedQuantile0.1=25.8185 weightedAverage=30.5114 weightedQuantile0.9=43.7917 max=69.2165
Expression pressure :  min=-967.778 weightedQuantile0.1=-54.0939 weightedAverage=-42.8394 weightedQuantile0.9=-32.2542 max=275.377
Expression tke :  min=0.000374219 weightedQuantile0.1=0.117419 weightedAverage=1.2062 weightedQuantile0.9=1.44317 max=141.217
Time = 19

smoothSolver:  Solving for Ux, Initial residual = 0.037768, Final residual = 0.00355678, No Iterations 1
smoothSolver:  Solving for Uy, Initial residual = 0.15929, Final residual = 0.00490554, No Iterations 2
smoothSolver:  Solving for Uz, Initial residual = 0.243249, Final residual = 0.016161, No Iterations 1
GAMG:  Solving for p, Initial residual = 0.0414856, Final residual = 0.00374507, No Iterations 2
time step continuity errors : sum local = 0.035677, global = -0.0142813, cumulative = 0.00597922
smoothSolver:  Solving for epsilon, Initial residual = 0.0495213, Final residual = 0.00158606, No Iterations 2
bounding epsilon, min: -23.374 max: 2770.24 average: 11.1549
smoothSolver:  Solving for k, Initial residual = 0.0633295, Final residual = 0.0039808, No Iterations 2
bounding k, min: -0.872242 max: 144.202 average: 1.30181
ExecutionTime = 20.51 s  ClockTime = 21 s

Expression velocity :  min=12.6915 weightedQuantile0.1=25.926 weightedAverage=30.5934 weightedQuantile0.9=43.7111 max=68.6016
Expression pressure :  min=-817.37 weightedQuantile0.1=-13.1049 weightedAverage=-6.37135 weightedQuantile0.9=-0.498435 max=327.536
Expression tke :  min=0.000413572 weightedQuantile0.1=0.119253 weightedAverage=1.30286 weightedQuantile0.9=1.58191 max=144.202
Time = 20

smoothSolver:  Solving for Ux, Initial residual = 0.0321044, Final residual = 0.00160088, No Iterations 2
smoothSolver:  Solving for Uy, Initial residual = 0.170119, Final residual = 0.00680677, No Iterations 2
smoothSolver:  Solving for Uz, Initial residual = 0.16135, Final residual = 0.00608941, No Iterations 2
GAMG:  Solving for p, Initial residual = 0.0415779, Final residual = 0.00290057, No Iterations 2
time step continuity errors : sum local = 0.0266548, global = 0.00549605, cumulative = 0.0114753
smoothSolver:  Solving for epsilon, Initial residual = 0.0388322, Final residual = 0.00132248, No Iterations 2
bounding epsilon, min: -24.1223 max: 2402.67 average: 12.2236
smoothSolver:  Solving for k, Initial residual = 0.0466291, Final residual = 0.00357838, No Iterations 2
bounding k, min: -0.919413 max: 146.677 average: 1.39967
ExecutionTime = 21.44 s  ClockTime = 22 s

Expression velocity :  min=12.3076 weightedQuantile0.1=25.9662 weightedAverage=30.5804 weightedQuantile0.9=43.6091 max=67.7313
Expression pressure :  min=-687.632 weightedQuantile0.1=18.7142 weightedAverage=30.2706 weightedQuantile0.9=43.5709 max=365.461
Expression tke :  min=0.000421863 weightedQuantile0.1=0.121795 weightedAverage=1.40059 weightedQuantile0.9=1.90487 max=146.677
Time = 21

smoothSolver:  Solving for Ux, Initial residual = 0.0320236, Final residual = 0.00156602, No Iterations 2
smoothSolver:  Solving for Uy, Initial residual = 0.181819, Final residual = 0.00660565, No Iterations 2
smoothSolver:  Solving for Uz, Initial residual = 0.159798, Final residual = 0.00724953, No Iterations 2
GAMG:  Solving for p, Initial residual = 0.0441657, Final residual = 0.00298354, No Iterations 2
time step continuity errors : sum local = 0.0253464, global = 0.00299495, cumulative = 0.0144702
smoothSolver:  Solving for epsilon, Initial residual = 0.0386696, Final residual = 0.00127283, No Iterations 2
bounding epsilon, min: -19.5203 max: 2140.75 average: 13.3999
smoothSolver:  Solving for k, Initial residual = 0.0430095, Final residual = 0.00306759, No Iterations 2
bounding k, min: -1.01854 max: 148.29 average: 1.50238
ExecutionTime = 22.36 s  ClockTime = 22 s

Expression velocity :  min=12.1075 weightedQuantile0.1=26.007 weightedAverage=30.5239 weightedQuantile0.9=43.55 max=66.7808
Expression pressure :  min=-617.694 weightedQuantile0.1=15.5095 weightedAverage=24.6517 weightedQuantile0.9=35.834 max=349.634
Expression tke :  min=0.000739008 weightedQuantile0.1=0.124626 weightedAverage=1.50312 weightedQuantile0.9=2.15071 max=148.29
Time = 22

smoothSolver:  Solving for Ux, Initial residual = 0.0272318, Final residual = 0.0014295, No Iterations 2
smoothSolver:  Solving for Uy, Initial residual = 0.157391, Final residual = 0.00539487, No Iterations 2
smoothSolver:  Solving for Uz, Initial residual = 0.140728, Final residual = 0.0056231, No Iterations 2
GAMG:  Solving for p, Initial residual = 0.0406987, Final residual = 0.00245663, No Iterations 2
time step continuity errors : sum local = 0.0200055, global = 0.00327789, cumulative = 0.0177481
smoothSolver:  Solving for epsilon, Initial residual = 0.0337573, Final residual = 0.00113337, No Iterations 2
bounding epsilon, min: -13.7374 max: 1885.8 average: 14.6237
smoothSolver:  Solving for k, Initial residual = 0.0348238, Final residual = 0.0027199, No Iterations 2
bounding k, min: -1.01176 max: 149.351 average: 1.60518
ExecutionTime = 23.26 s  ClockTime = 23 s

Expression velocity :  min=12.0832 weightedQuantile0.1=26.0582 weightedAverage=30.5356 weightedQuantile0.9=43.425 max=66.4214
Expression pressure :  min=-559.588 weightedQuantile0.1=12.9513 weightedAverage=18.809 weightedQuantile0.9=27.9665 max=327.074
Expression tke :  min=0.00219571 weightedQuantile0.1=0.127057 weightedAverage=1.60628 weightedQuantile0.9=2.4207 max=149.351
Time = 23

smoothSolver:  Solving for Ux, Initial residual = 0.0236855, Final residual = 0.001396, No Iterations 2
smoothSolver:  Solving for Uy, Initial residual = 0.134401, Final residual = 0.00500293, No Iterations 2
smoothSolver:  Solving for Uz, Initial residual = 0.118611, Final residual = 0.00601806, No Iterations 2
GAMG:  Solving for p, Initial residual = 0.0384679, Final residual = 0.00210529, No Iterations 2
time step continuity errors : sum local = 0.0164546, global = 0.00368368, cumulative = 0.0214318
smoothSolver:  Solving for epsilon, Initial residual = 0.0316664, Final residual = 0.00103915, No Iterations 2
bounding epsilon, min: -14.3892 max: 1890.87 average: 15.9097
smoothSolver:  Solving for k, Initial residual = 0.0289264, Final residual = 0.00224888, No Iterations 2
bounding k, min: -1.08653 max: 150.403 average: 1.70861
ExecutionTime = 24.16 s  ClockTime = 24 s

Expression velocity :  min=12.1477 weightedQuantile0.1=26.1373 weightedAverage=30.6083 weightedQuantile0.9=43.36 max=66.5392
Expression pressure :  min=-511.416 weightedQuantile0.1=7.1212 weightedAverage=11.7338 weightedQuantile0.9=18.0782 max=300.507
Expression tke :  min=0.0016335 weightedQuantile0.1=0.128733 weightedAverage=1.70942 weightedQuantile0.9=2.68211 max=150.403
Time = 24

smoothSolver:  Solving for Ux, Initial residual = 0.0240284, Final residual = 0.00151612, No Iterations 2
smoothSolver:  Solving for Uy, Initial residual = 0.140613, Final residual = 0.00601035, No Iterations 2
smoothSolver:  Solving for Uz, Initial residual = 0.128178, Final residual = 0.00636429, No Iterations 2
GAMG:  Solving for p, Initial residual = 0.0368098, Final residual = 0.00206603, No Iterations 2
time step continuity errors : sum local = 0.0155855, global = 0.00358752, cumulative = 0.0250193
smoothSolver:  Solving for epsilon, Initial residual = 0.029112, Final residual = 0.000948432, No Iterations 2
bounding epsilon, min: -14.7135 max: 1877.53 average: 17.179
smoothSolver:  Solving for k, Initial residual = 0.027511, Final residual = 0.00217271, No Iterations 2
bounding k, min: -1.02639 max: 151.301 average: 1.81181
ExecutionTime = 25.06 s  ClockTime = 25 s

Expression velocity :  min=12.2493 weightedQuantile0.1=26.2307 weightedAverage=30.7286 weightedQuantile0.9=43.4 max=66.6297
Expression pressure :  min=-469.652 weightedQuantile0.1=0.479339 weightedAverage=4.39509 weightedQuantile0.9=8.59028 max=273.091
Expression tke :  min=0.0013989 weightedQuantile0.1=0.130813 weightedAverage=1.8126 weightedQuantile0.9=2.87654 max=151.301
Time = 25

smoothSolver:  Solving for Ux, Initial residual = 0.0268726, Final residual = 0.00167572, No Iterations 2
smoothSolver:  Solving for Uy, Initial residual = 0.159366, Final residual = 0.0078435, No Iterations 2
smoothSolver:  Solving for Uz, Initial residual = 0.192319, Final residual = 0.00834729, No Iterations 2
GAMG:  Solving for p, Initial residual = 0.035461, Final residual = 0.00195189, No Iterations 2
time step continuity errors : sum local = 0.0142376, global = 0.002956, cumulative = 0.0279753
smoothSolver:  Solving for epsilon, Initial residual = 0.0280418, Final residual = 0.000847741, No Iterations 2
bounding epsilon, min: -14.2442 max: 1924.17 average: 18.5127
smoothSolver:  Solving for k, Initial residual = 0.0328525, Final residual = 0.00195215, No Iterations 2
bounding k, min: -1.00081 max: 151.902 average: 1.91591
ExecutionTime = 26.14 s  ClockTime = 26 s

Expression velocity :  min=12.393 weightedQuantile0.1=26.3509 weightedAverage=30.8801 weightedQuantile0.9=43.39 max=66.8223
Expression pressure :  min=-431.658 weightedQuantile0.1=-5.63332 weightedAverage=-2.24654 weightedQuantile0.9=0.992624 max=247.352
Expression tke :  min=0.000913115 weightedQuantile0.1=0.132214 weightedAverage=1.91675 weightedQuantile0.9=3.05263 max=151.902
Time = 26

smoothSolver:  Solving for Ux, Initial residual = 0.0237026, Final residual = 0.00178084, No Iterations 2
smoothSolver:  Solving for Uy, Initial residual = 0.146781, Final residual = 0.00871884, No Iterations 2
smoothSolver:  Solving for Uz, Initial residual = 0.126502, Final residual = 0.00607251, No Iterations 2
GAMG:  Solving for p, Initial residual = 0.0342217, Final residual = 0.00167741, No Iterations 2
time step continuity errors : sum local = 0.0118291, global = 0.00203435, cumulative = 0.0300097
smoothSolver:  Solving for epsilon, Initial residual = 0.0252296, Final residual = 0.000756985, No Iterations 2
bounding epsilon, min: -13.0794 max: 2029.93 average: 19.7993
smoothSolver:  Solving for k, Initial residual = 0.026566, Final residual = 0.00206969, No Iterations 2
bounding k, min: -0.803934 max: 154.514 average: 2.02151
ExecutionTime = 27.08 s  ClockTime = 27 s

Expression velocity :  min=12.5314 weightedQuantile0.1=26.487 weightedAverage=31.0499 weightedQuantile0.9=43.4143 max=66.8954
Expression pressure :  min=-396.078 weightedQuantile0.1=-11.0683 weightedAverage=-7.65424 weightedQuantile0.9=-4.16135 max=224.195
Expression tke :  min=0.000420167 weightedQuantile0.1=0.134021 weightedAverage=2.02227 weightedQuantile0.9=3.36022 max=154.514
Time = 27

smoothSolver:  Solving for Ux, Initial residual = 0.0215753, Final residual = 0.00172199, No Iterations 2
smoothSolver:  Solving for Uy, Initial residual = 0.137919, Final residual = 0.00898835, No Iterations 2
smoothSolver:  Solving for Uz, Initial residual = 0.145419, Final residual = 0.00820755, No Iterations 2
GAMG:  Solving for p, Initial residual = 0.0328483, Final residual = 0.00125776, No Iterations 2
time step continuity errors : sum local = 0.00861375, global = 0.000162007, cumulative = 0.0301717
smoothSolver:  Solving for epsilon, Initial residual = 0.0241919, Final residual = 0.000746999, No Iterations 2
bounding epsilon, min: -11.6729 max: 2107.66 average: 21.0641
smoothSolver:  Solving for k, Initial residual = 0.0254185, Final residual = 0.00176128, No Iterations 2
bounding k, min: -0.632252 max: 158.302 average: 2.12887
ExecutionTime = 28.01 s  ClockTime = 28 s

Expression velocity :  min=12.7353 weightedQuantile0.1=26.6232 weightedAverage=31.2245 weightedQuantile0.9=43.4625 max=66.8516
Expression pressure :  min=-361.83 weightedQuantile0.1=-15.2525 weightedAverage=-11.3004 weightedQuantile0.9=-8.02022 max=204.502
Expression tke :  min=0.000729586 weightedQuantile0.1=0.135327 weightedAverage=2.12963 weightedQuantile0.9=3.61098 max=158.302
Time = 28

smoothSolver:  Solving for Ux, Initial residual = 0.0206153, Final residual = 0.00181664, No Iterations 2
smoothSolver:  Solving for Uy, Initial residual = 0.131799, Final residual = 0.0105509, No Iterations 2
smoothSolver:  Solving for Uz, Initial residual = 0.11136, Final residual = 0.00569435, No Iterations 2
GAMG:  Solving for p, Initial residual = 0.0318193, Final residual = 0.00103987, No Iterations 2
time step continuity errors : sum local = 0.006894, global = -0.00126492, cumulative = 0.0289067
smoothSolver:  Solving for epsilon, Initial residual = 0.0204099, Final residual = 0.000677041, No Iterations 2
bounding epsilon, min: -9.35055 max: 2150.98 average: 22.3344
smoothSolver:  Solving for k, Initial residual = 0.0215671, Final residual = 0.00190446, No Iterations 2
bounding k, min: -0.430407 max: 160.898 average: 2.23731
ExecutionTime = 28.93 s  ClockTime = 29 s

Expression velocity :  min=12.9435 weightedQuantile0.1=26.7525 weightedAverage=31.385 weightedQuantile0.9=43.48 max=66.6954
Expression pressure :  min=-325.872 weightedQuantile0.1=-16.5984 weightedAverage=-11.2771 weightedQuantile0.9=-7.33207 max=190.971
Expression tke :  min=0.00033833 weightedQuantile0.1=0.136687 weightedAverage=2.23781 weightedQuantile0.9=3.82062 max=160.898
Time = 29

smoothSolver:  Solving for Ux, Initial residual = 0.0189775, Final residual = 0.00174479, No Iterations 2
smoothSolver:  Solving for Uy, Initial residual = 0.119546, Final residual = 0.0108871, No Iterations 2
smoothSolver:  Solving for Uz, Initial residual = 0.104613, Final residual = 0.00554178, No Iterations 2
GAMG:  Solving for p, Initial residual = 0.0312944, Final residual = 0.00120648, No Iterations 2
time step continuity errors : sum local = 0.0077636, global = -0.0018701, cumulative = 0.0270366
smoothSolver:  Solving for epsilon, Initial residual = 0.0218746, Final residual = 0.000636821, No Iterations 2
bounding epsilon, min: -6.48942 max: 2170.94 average: 23.559
smoothSolver:  Solving for k, Initial residual = 0.0181345, Final residual = 0.00161694, No Iterations 2
bounding k, min: -0.412669 max: 162.379 average: 2.34639
ExecutionTime = 29.83 s  ClockTime = 30 s

Expression velocity :  min=13.1517 weightedQuantile0.1=26.8519 weightedAverage=31.5194 weightedQuantile0.9=43.4643 max=66.4264
Expression pressure :  min=-288.634 weightedQuantile0.1=-14.528 weightedAverage=-7.52483 weightedQuantile0.9=-2.38367 max=182.826
Expression tke :  min=0.00188138 weightedQuantile0.1=0.138533 weightedAverage=2.34664 weightedQuantile0.9=4.06149 max=162.379
Time = 30

smoothSolver:  Solving for Ux, Initial residual = 0.0178969, Final residual = 0.00175179, No Iterations 2
smoothSolver:  Solving for Uy, Initial residual = 0.106319, Final residual = 0.0071464, No Iterations 3
smoothSolver:  Solving for Uz, Initial residual = 0.083717, Final residual = 0.00557015, No Iterations 2
GAMG:  Solving for p, Initial residual = 0.0308008, Final residual = 0.000986152, No Iterations 2
time step continuity errors : sum local = 0.00612562, global = -0.00166853, cumulative = 0.0253681
smoothSolver:  Solving for epsilon, Initial residual = 0.0268869, Final residual = 0.000624021, No Iterations 2
bounding epsilon, min: -5.38209 max: 2165.12 average: 24.7189
smoothSolver:  Solving for k, Initial residual = 0.0173145, Final residual = 0.00167977, No Iterations 2
bounding k, min: -0.409927 max: 163.137 average: 2.4569
ExecutionTime = 30.75 s  ClockTime = 31 s

Expression velocity :  min=13.2992 weightedQuantile0.1=26.9473 weightedAverage=31.6355 weightedQuantile0.9=43.4667 max=66.0497
Expression pressure :  min=-254.761 weightedQuantile0.1=-11.7807 weightedAverage=-3.49692 weightedQuantile0.9=2.59563 max=175.074
Expression tke :  min=0.0018679 weightedQuantile0.1=0.140125 weightedAverage=2.45717 weightedQuantile0.9=4.32919 max=163.137
Time = 31

smoothSolver:  Solving for Ux, Initial residual = 0.0180255, Final residual = 0.00177927, No Iterations 2
smoothSolver:  Solving for Uy, Initial residual = 0.103237, Final residual = 0.00697583, No Iterations 3
smoothSolver:  Solving for Uz, Initial residual = 0.0763771, Final residual = 0.0055031, No Iterations 2
GAMG:  Solving for p, Initial residual = 0.0303994, Final residual = 0.000787624, No Iterations 2
time step continuity errors : sum local = 0.00473828, global = -0.000925276, cumulative = 0.0244428
smoothSolver:  Solving for epsilon, Initial residual = 0.0166263, Final residual = 0.000620501, No Iterations 2
bounding epsilon, min: -5.33252 max: 2157.31 average: 25.8415
smoothSolver:  Solving for k, Initial residual = 0.017326, Final residual = 0.000826919, No Iterations 3
bounding k, min: -0.390851 max: 163.219 average: 2.57169
ExecutionTime = 31.67 s  ClockTime = 32 s

Expression velocity :  min=13.4596 weightedQuantile0.1=27.0288 weightedAverage=31.7419 weightedQuantile0.9=43.4111 max=65.907
Expression pressure :  min=-225.483 weightedQuantile0.1=-9.40965 weightedAverage=-0.601896 weightedQuantile0.9=5.89567 max=166.254
Expression tke :  min=0.00147099 weightedQuantile0.1=0.142187 weightedAverage=2.57196 weightedQuantile0.9=4.58675 max=163.219
Time = 32

smoothSolver:  Solving for Ux, Initial residual = 0.018474, Final residual = 0.00179212, No Iterations 2
smoothSolver:  Solving for Uy, Initial residual = 0.0982512, Final residual = 0.00629014, No Iterations 3
smoothSolver:  Solving for Uz, Initial residual = 0.0743984, Final residual = 0.00520452, No Iterations 2
GAMG:  Solving for p, Initial residual = 0.0302948, Final residual = 0.000821465, No Iterations 2
time step continuity errors : sum local = 0.00477832, global = -0.000110241, cumulative = 0.0243326
smoothSolver:  Solving for epsilon, Initial residual = 0.0160292, Final residual = 0.00061104, No Iterations 2
bounding epsilon, min: -5.44398 max: 2140.14 average: 26.9159
smoothSolver:  Solving for k, Initial residual = 0.0176451, Final residual = 0.00082976, No Iterations 3
bounding k, min: -0.460382 max: 162.829 average: 2.69395
ExecutionTime = 32.59 s  ClockTime = 33 s

Expression velocity :  min=13.5968 weightedQuantile0.1=27.1247 weightedAverage=31.8483 weightedQuantile0.9=43.3267 max=65.9839
Expression pressure :  min=-201.386 weightedQuantile0.1=-8.35415 weightedAverage=0.27451 weightedQuantile0.9=6.87537 max=155.501
Expression tke :  min=0.0017951 weightedQuantile0.1=0.145751 weightedAverage=2.69426 weightedQuantile0.9=4.83493 max=162.829
Time = 33

smoothSolver:  Solving for Ux, Initial residual = 0.0190518, Final residual = 0.00179567, No Iterations 2
smoothSolver:  Solving for Uy, Initial residual = 0.0926246, Final residual = 0.00860406, No Iterations 2
smoothSolver:  Solving for Uz, Initial residual = 0.0730055, Final residual = 0.00473594, No Iterations 2
GAMG:  Solving for p, Initial residual = 0.0303699, Final residual = 0.000787484, No Iterations 2
time step continuity errors : sum local = 0.00442818, global = 0.000736537, cumulative = 0.0250691
smoothSolver:  Solving for epsilon, Initial residual = 0.0157804, Final residual = 0.00060066, No Iterations 2
bounding epsilon, min: -5.32476 max: 2125.87 average: 28.0302
smoothSolver:  Solving for k, Initial residual = 0.0172659, Final residual = 0.00172389, No Iterations 2
bounding k, min: -0.442747 max: 162.359 average: 2.80781
ExecutionTime = 33.55 s  ClockTime = 34 s

Expression velocity :  min=13.7536 weightedQuantile0.1=27.2338 weightedAverage=31.9689 weightedQuantile0.9=43.2154 max=66.0143
Expression pressure :  min=-182.712 weightedQuantile0.1=-8.69658 weightedAverage=-1.15202 weightedQuantile0.9=4.82309 max=142.322
Expression tke :  min=0.00175234 weightedQuantile0.1=0.148588 weightedAverage=2.80814 weightedQuantile0.9=4.97531 max=162.359
Time = 34

smoothSolver:  Solving for Ux, Initial residual = 0.0195236, Final residual = 0.00178036, No Iterations 2
smoothSolver:  Solving for Uy, Initial residual = 0.0885299, Final residual = 0.0068087, No Iterations 2
smoothSolver:  Solving for Uz, Initial residual = 0.0721004, Final residual = 0.00409893, No Iterations 2
GAMG:  Solving for p, Initial residual = 0.03033, Final residual = 0.00094665, No Iterations 2
time step continuity errors : sum local = 0.00515502, global = 0.00140635, cumulative = 0.0264755
smoothSolver:  Solving for epsilon, Initial residual = 0.0145579, Final residual = 0.000563983, No Iterations 2
bounding epsilon, min: -5.07897 max: 2118.08 average: 28.9832
smoothSolver:  Solving for k, Initial residual = 0.0163795, Final residual = 0.00158191, No Iterations 2
bounding k, min: -0.385551 max: 161.493 average: 2.91289
ExecutionTime = 34.48 s  ClockTime = 35 s

Expression velocity :  min=13.9298 weightedQuantile0.1=27.375 weightedAverage=32.1109 weightedQuantile0.9=43.1867 max=66.156
Expression pressure :  min=-168.467 weightedQuantile0.1=-10.2036 weightedAverage=-4.3822 weightedQuantile0.9=0.638853 max=127.471
Expression tke :  min=0.00171803 weightedQuantile0.1=0.150568 weightedAverage=2.91325 weightedQuantile0.9=5.29431 max=161.493
Time = 35

smoothSolver:  Solving for Ux, Initial residual = 0.0199091, Final residual = 0.00176401, No Iterations 2
smoothSolver:  Solving for Uy, Initial residual = 0.0849847, Final residual = 0.00491212, No Iterations 2
smoothSolver:  Solving for Uz, Initial residual = 0.070967, Final residual = 0.00337879, No Iterations 2
GAMG:  Solving for p, Initial residual = 0.0301174, Final residual = 0.00100657, No Iterations 2
time step continuity errors : sum local = 0.00531504, global = 0.00163673, cumulative = 0.0281122
smoothSolver:  Solving for epsilon, Initial residual = 0.013185, Final residual = 0.000512598, No Iterations 2
bounding epsilon, min: -4.93642 max: 2116.52 average: 29.7762
smoothSolver:  Solving for k, Initial residual = 0.0150972, Final residual = 0.00137759, No Iterations 2
bounding k, min: -0.339607 max: 160.366 average: 3.00896
ExecutionTime = 35.42 s  ClockTime = 36 s

Expression velocity :  min=14.1564 weightedQuantile0.1=27.5448 weightedAverage=32.2763 weightedQuantile0.9=43.16 max=66.2356
Expression pressure :  min=-157.387 weightedQuantile0.1=-12.9215 weightedAverage=-8.84011 weightedQuantile0.9=-5.14375 max=112.004
Expression tke :  min=0.00120719 weightedQuantile0.1=0.151734 weightedAverage=3.00938 weightedQuantile0.9=5.58021 max=160.366
Time = 36

smoothSolver:  Solving for Ux, Initial residual = 0.0207245, Final residual = 0.00174123, No Iterations 2
smoothSolver:  Solving for Uy, Initial residual = 0.0827257, Final residual = 0.003215, No Iterations 2
smoothSolver:  Solving for Uz, Initial residual = 0.0695864, Final residual = 0.00268643, No Iterations 2
GAMG:  Solving for p, Initial residual = 0.0299783, Final residual = 0.000940302, No Iterations 2
time step continuity errors : sum local = 0.00481339, global = 0.0014494, cumulative = 0.0295616
smoothSolver:  Solving for epsilon, Initial residual = 0.0120561, Final residual = 0.000471002, No Iterations 2
bounding epsilon, min: -4.26189 max: 2119.7 average: 30.424
smoothSolver:  Solving for k, Initial residual = 0.0139577, Final residual = 0.00116002, No Iterations 2
bounding k, min: -0.239173 max: 158.957 average: 3.09969
ExecutionTime = 36.34 s  ClockTime = 37 s

Expression velocity :  min=14.3987 weightedQuantile0.1=27.7476 weightedAverage=32.4631 weightedQuantile0.9=43.12 max=66.4249
Expression pressure :  min=-147.805 weightedQuantile0.1=-16.3611 weightedAverage=-13.3869 weightedQuantile0.9=-10.2467 max=97.3739
Expression tke :  min=0.000291569 weightedQuantile0.1=0.152835 weightedAverage=3.10012 weightedQuantile0.9=5.80269 max=158.957
Time = 37

smoothSolver:  Solving for Ux, Initial residual = 0.0216377, Final residual = 0.00170502, No Iterations 2
smoothSolver:  Solving for Uy, Initial residual = 0.0810097, Final residual = 0.00669728, No Iterations 1
smoothSolver:  Solving for Uz, Initial residual = 0.0675177, Final residual = 0.00202827, No Iterations 2
GAMG:  Solving for p, Initial residual = 0.0294774, Final residual = 0.000762119, No Iterations 2
time step continuity errors : sum local = 0.0037875, global = 0.000944388, cumulative = 0.030506
smoothSolver:  Solving for epsilon, Initial residual = 0.011346, Final residual = 0.000446463, No Iterations 2
bounding epsilon, min: -3.792 max: 2122.72 average: 30.9885
smoothSolver:  Solving for k, Initial residual = 0.0126436, Final residual = 0.000958265, No Iterations 2
bounding k, min: -0.167548 max: 157.368 average: 3.18514
ExecutionTime = 37.24 s  ClockTime = 37 s

Expression velocity :  min=14.6428 weightedQuantile0.1=27.9729 weightedAverage=32.6646 weightedQuantile0.9=43.1111 max=66.5645
Expression pressure :  min=-138.326 weightedQuantile0.1=-19.5769 weightedAverage=-17.0781 weightedQuantile0.9=-14.3185 max=84.8014
Expression tke :  min=0.000912811 weightedQuantile0.1=0.153917 weightedAverage=3.18559 weightedQuantile0.9=5.9904 max=157.368
Time = 38

smoothSolver:  Solving for Ux, Initial residual = 0.0221487, Final residual = 0.00165336, No Iterations 2
smoothSolver:  Solving for Uy, Initial residual = 0.0797323, Final residual = 0.00617077, No Iterations 1
smoothSolver:  Solving for Uz, Initial residual = 0.0644779, Final residual = 0.00571736, No Iterations 1
GAMG:  Solving for p, Initial residual = 0.028779, Final residual = 0.000802192, No Iterations 2
time step continuity errors : sum local = 0.00386586, global = -0.000331324, cumulative = 0.0301747
smoothSolver:  Solving for epsilon, Initial residual = 0.0106642, Final residual = 0.000434079, No Iterations 2
bounding epsilon, min: -2.74597 max: 2130.77 average: 31.4708
smoothSolver:  Solving for k, Initial residual = 0.011414, Final residual = 0.00080722, No Iterations 2
bounding k, min: -0.137132 max: 155.705 average: 3.26639
ExecutionTime = 38.14 s  ClockTime = 38 s

Expression velocity :  min=14.9001 weightedQuantile0.1=28.2053 weightedAverage=32.8738 weightedQuantile0.9=43.15 max=66.6713
Expression pressure :  min=-128.746 weightedQuantile0.1=-22.3572 weightedAverage=-19.9317 weightedQuantile0.9=-17.3229 max=74.2858
Expression tke :  min=0.000591822 weightedQuantile0.1=0.155015 weightedAverage=3.26656 weightedQuantile0.9=6.35509 max=155.705
Time = 39

smoothSolver:  Solving for Ux, Initial residual = 0.0224054, Final residual = 0.00159819, No Iterations 2
smoothSolver:  Solving for Uy, Initial residual = 0.0764958, Final residual = 0.00597946, No Iterations 1
smoothSolver:  Solving for Uz, Initial residual = 0.0616638, Final residual = 0.00524283, No Iterations 1
GAMG:  Solving for p, Initial residual = 0.0282122, Final residual = 0.000987356, No Iterations 2
time step continuity errors : sum local = 0.00461173, global = -0.000416883, cumulative = 0.0297578
smoothSolver:  Solving for epsilon, Initial residual = 0.0104496, Final residual = 0.000410819, No Iterations 2
bounding epsilon, min: -1.95295 max: 2131.46 average: 31.9054
smoothSolver:  Solving for k, Initial residual = 0.0104729, Final residual = 0.000705537, No Iterations 2
bounding k, min: -0.156315 max: 154.049 average: 3.34505
ExecutionTime = 39.03 s  ClockTime = 39 s

Expression velocity :  min=15.1569 weightedQuantile0.1=28.4478 weightedAverage=33.085 weightedQuantile0.9=43.175 max=66.809
Expression pressure :  min=-117.147 weightedQuantile0.1=-22.3185 weightedAverage=-19.8848 weightedQuantile0.9=-17.3449 max=67.5833
Expression tke :  min=0.000448759 weightedQuantile0.1=0.155824 weightedAverage=3.3452 weightedQuantile0.9=6.63061 max=154.049
Time = 40

smoothSolver:  Solving for Ux, Initial residual = 0.0214058, Final residual = 0.00151346, No Iterations 2
smoothSolver:  Solving for Uy, Initial residual = 0.0718, Final residual = 0.00614775, No Iterations 1
smoothSolver:  Solving for Uz, Initial residual = 0.057429, Final residual = 0.00467015, No Iterations 1
GAMG:  Solving for p, Initial residual = 0.0269753, Final residual = 0.000950922, No Iterations 2
time step continuity errors : sum local = 0.00430257, global = -0.000465767, cumulative = 0.029292
smoothSolver:  Solving for epsilon, Initial residual = 0.00964624, Final residual = 0.000390767, No Iterations 2
bounding epsilon, min: -1.33703 max: 2137.2 average: 32.2828
smoothSolver:  Solving for k, Initial residual = 0.00982679, Final residual = 0.000637565, No Iterations 2
bounding k, min: -0.0861846 max: 152.448 average: 3.41844
ExecutionTime = 39.92 s  ClockTime = 40 s

Expression velocity :  min=15.3882 weightedQuantile0.1=28.6862 weightedAverage=33.2904 weightedQuantile0.9=43.2125 max=66.8733
Expression pressure :  min=-105.918 weightedQuantile0.1=-21.7621 weightedAverage=-19.3436 weightedQuantile0.9=-16.7091 max=62.1327
Expression tke :  min=0.000702678 weightedQuantile0.1=0.157183 weightedAverage=3.41854 weightedQuantile0.9=6.98308 max=152.448
Time = 41

smoothSolver:  Solving for Ux, Initial residual = 0.0203989, Final residual = 0.00143785, No Iterations 2
smoothSolver:  Solving for Uy, Initial residual = 0.0680656, Final residual = 0.00644685, No Iterations 1
smoothSolver:  Solving for Uz, Initial residual = 0.0537629, Final residual = 0.00430647, No Iterations 1
GAMG:  Solving for p, Initial residual = 0.0258009, Final residual = 0.000892384, No Iterations 2
time step continuity errors : sum local = 0.00391225, global = -0.000501857, cumulative = 0.0287902
smoothSolver:  Solving for epsilon, Initial residual = 0.00924812, Final residual = 0.000379964, No Iterations 2
bounding epsilon, min: -0.504038 max: 2128.25 average: 32.6153
smoothSolver:  Solving for k, Initial residual = 0.00911334, Final residual = 0.00059307, No Iterations 2
bounding k, min: -0.0946327 max: 150.965 average: 3.488
ExecutionTime = 40.81 s  ClockTime = 41 s

Expression velocity :  min=15.6119 weightedQuantile0.1=28.9146 weightedAverage=33.4883 weightedQuantile0.9=43.3286 max=66.8672
Expression pressure :  min=-95.1555 weightedQuantile0.1=-20.8068 weightedAverage=-18.4249 weightedQuantile0.9=-15.8741 max=57.7067
Expression tke :  min=0.00164354 weightedQuantile0.1=0.158328 weightedAverage=3.48808 weightedQuantile0.9=7.40265 max=150.965
Time = 42

smoothSolver:  Solving for Ux, Initial residual = 0.0193088, Final residual = 0.00136153, No Iterations 2
smoothSolver:  Solving for Uy, Initial residual = 0.064253, Final residual = 0.00211888, No Iterations 2
smoothSolver:  Solving for Uz, Initial residual = 0.0505972, Final residual = 0.00402787, No Iterations 1
GAMG:  Solving for p, Initial residual = 0.0248614, Final residual = 0.000675152, No Iterations 2
time step continuity errors : sum local = 0.00287201, global = -0.000549618, cumulative = 0.0282406
smoothSolver:  Solving for epsilon, Initial residual = 0.00873131, Final residual = 0.000367147, No Iterations 2
bounding epsilon, min: -0.69769 max: 2131.05 average: 32.8998
smoothSolver:  Solving for k, Initial residual = 0.00863712, Final residual = 0.00056075, No Iterations 2
bounding k, min: -0.118777 max: 149.784 average: 3.55322
ExecutionTime = 41.7 s  ClockTime = 42 s

Expression velocity :  min=15.8193 weightedQuantile0.1=29.13 weightedAverage=33.6728 weightedQuantile0.9=43.3923 max=66.7941
Expression pressure :  min=-84.008 weightedQuantile0.1=-19.134 weightedAverage=-16.7352 weightedQuantile0.9=-14.2189 max=54.9906
Expression tke :  min=0.00166362 weightedQuantile0.1=0.159693 weightedAverage=3.55333 weightedQuantile0.9=7.73581 max=149.784
Time = 43

smoothSolver:  Solving for Ux, Initial residual = 0.0180569, Final residual = 0.00126925, No Iterations 2
smoothSolver:  Solving for Uy, Initial residual = 0.0598184, Final residual = 0.00586678, No Iterations 1
smoothSolver:  Solving for Uz, Initial residual = 0.047167, Final residual = 0.00377313, No Iterations 1
GAMG:  Solving for p, Initial residual = 0.0234597, Final residual = 0.000665623, No Iterations 2
time step continuity errors : sum local = 0.00275141, global = -0.000584752, cumulative = 0.0276558
smoothSolver:  Solving for epsilon, Initial residual = 0.00839156, Final residual = 0.0003557, No Iterations 2
bounding epsilon, min: -0.897838 max: 2128.22 average: 33.1678
smoothSolver:  Solving for k, Initial residual = 0.00816498, Final residual = 0.000526059, No Iterations 2
bounding k, min: -0.132468 max: 148.786 average: 3.61492
ExecutionTime = 42.62 s  ClockTime = 43 s

Expression velocity :  min=16.0222 weightedQuantile0.1=29.3268 weightedAverage=33.845 weightedQuantile0.9=43.4727 max=66.6562
Expression pressure :  min=-73.2632 weightedQuantile0.1=-17.3824 weightedAverage=-14.6253 weightedQuantile0.9=-12.1663 max=53.1049
Expression tke :  min=0.00134982 weightedQuantile0.1=0.161173 weightedAverage=3.61505 weightedQuantile0.9=8.09739 max=148.786
Time = 44

smoothSolver:  Solving for Ux, Initial residual = 0.0169186, Final residual = 0.00118111, No Iterations 2
smoothSolver:  Solving for Uy, Initial residual = 0.0551481, Final residual = 0.00549804, No Iterations 1
smoothSolver:  Solving for Uz, Initial residual = 0.0440852, Final residual = 0.00351129, No Iterations 1
GAMG:  Solving for p, Initial residual = 0.0223987, Final residual = 0.000660762, No Iterations 2
time step continuity errors : sum local = 0.00265645, global = -0.000659448, cumulative = 0.0269964
smoothSolver:  Solving for epsilon, Initial residual = 0.00798951, Final residual = 0.00034249, No Iterations 2
bounding epsilon, min: -1.1478 max: 2125.33 average: 33.4206
smoothSolver:  Solving for k, Initial residual = 0.00766617, Final residual = 0.000503651, No Iterations 2
bounding k, min: -0.147604 max: 148.003 average: 3.67306
ExecutionTime = 43.5 s  ClockTime = 44 s

Expression velocity :  min=16.2223 weightedQuantile0.1=29.5168 weightedAverage=34.0041 weightedQuantile0.9=43.5259 max=66.4575
Expression pressure :  min=-63.0853 weightedQuantile0.1=-15.4634 weightedAverage=-12.337 weightedQuantile0.9=-9.43982 max=51.7557
Expression tke :  min=0.00170086 weightedQuantile0.1=0.163106 weightedAverage=3.67322 weightedQuantile0.9=8.35142 max=148.003
Time = 45

smoothSolver:  Solving for Ux, Initial residual = 0.0158997, Final residual = 0.00109704, No Iterations 2
smoothSolver:  Solving for Uy, Initial residual = 0.0498108, Final residual = 0.00493118, No Iterations 1
smoothSolver:  Solving for Uz, Initial residual = 0.0410387, Final residual = 0.00325929, No Iterations 1
GAMG:  Solving for p, Initial residual = 0.0216386, Final residual = 0.000648508, No Iterations 2
time step continuity errors : sum local = 0.00253717, global = -0.000724377, cumulative = 0.026272
smoothSolver:  Solving for epsilon, Initial residual = 0.00768631, Final residual = 0.000333841, No Iterations 2
bounding epsilon, min: -0.58172 max: 2128.2 average: 33.6604
smoothSolver:  Solving for k, Initial residual = 0.00725093, Final residual = 0.000488282, No Iterations 2
bounding k, min: -0.144206 max: 147.42 average: 3.72774
ExecutionTime = 44.38 s  ClockTime = 45 s

Expression velocity :  min=16.4064 weightedQuantile0.1=29.6843 weightedAverage=34.1501 weightedQuantile0.9=43.5889 max=66.2016
Expression pressure :  min=-53.5629 weightedQuantile0.1=-13.5277 weightedAverage=-9.92465 weightedQuantile0.9=-7.13003 max=50.7658
Expression tke :  min=0.00172913 weightedQuantile0.1=0.164541 weightedAverage=3.7279 weightedQuantile0.9=8.53535 max=147.42
Time = 46

smoothSolver:  Solving for Ux, Initial residual = 0.0150118, Final residual = 0.00101817, No Iterations 2
smoothSolver:  Solving for Uy, Initial residual = 0.0448402, Final residual = 0.00432733, No Iterations 1
smoothSolver:  Solving for Uz, Initial residual = 0.0380615, Final residual = 0.00301118, No Iterations 1
GAMG:  Solving for p, Initial residual = 0.0211414, Final residual = 0.000592484, No Iterations 2
time step continuity errors : sum local = 0.00225759, global = -0.000701305, cumulative = 0.0255707
smoothSolver:  Solving for epsilon, Initial residual = 0.0073245, Final residual = 0.000325501, No Iterations 2
bounding epsilon, min: -1.28374 max: 2135.57 average: 33.8801
smoothSolver:  Solving for k, Initial residual = 0.00693659, Final residual = 0.000474047, No Iterations 2
bounding k, min: -0.157562 max: 147 average: 3.77905
ExecutionTime = 45.27 s  ClockTime = 45 s

Expression velocity :  min=16.572 weightedQuantile0.1=29.8362 weightedAverage=34.284 weightedQuantile0.9=43.619 max=65.8927
Expression pressure :  min=-44.9378 weightedQuantile0.1=-11.5868 weightedAverage=-7.55656 weightedQuantile0.9=-4.21049 max=49.7936
Expression tke :  min=0.00176224 weightedQuantile0.1=0.165879 weightedAverage=3.77921 weightedQuantile0.9=8.70649 max=147
Time = 47

smoothSolver:  Solving for Ux, Initial residual = 0.0142772, Final residual = 0.000948753, No Iterations 2
smoothSolver:  Solving for Uy, Initial residual = 0.0404228, Final residual = 0.00374013, No Iterations 1
smoothSolver:  Solving for Uz, Initial residual = 0.0352784, Final residual = 0.00278116, No Iterations 1
GAMG:  Solving for p, Initial residual = 0.0207223, Final residual = 0.000592867, No Iterations 2
time step continuity errors : sum local = 0.00220214, global = 0.00042289, cumulative = 0.0259936
smoothSolver:  Solving for epsilon, Initial residual = 0.00721446, Final residual = 0.000320991, No Iterations 2
bounding epsilon, min: -0.769453 max: 2144.99 average: 34.0901
smoothSolver:  Solving for k, Initial residual = 0.00675525, Final residual = 0.000465872, No Iterations 2
bounding k, min: -0.146372 max: 146.734 average: 3.82707
ExecutionTime = 46.16 s  ClockTime = 46 s

Expression velocity :  min=16.7307 weightedQuantile0.1=29.9799 weightedAverage=34.4057 weightedQuantile0.9=43.6524 max=65.5302
Expression pressure :  min=-36.3807 weightedQuantile0.1=-8.94564 weightedAverage=-4.39815 weightedQuantile0.9=-0.539177 max=49.6039
Expression tke :  min=0.00179904 weightedQuantile0.1=0.167294 weightedAverage=3.82724 weightedQuantile0.9=8.8392 max=146.734
Time = 48

smoothSolver:  Solving for Ux, Initial residual = 0.0136715, Final residual = 0.000881715, No Iterations 2
smoothSolver:  Solving for Uy, Initial residual = 0.0364998, Final residual = 0.003224, No Iterations 1
smoothSolver:  Solving for Uz, Initial residual = 0.0328018, Final residual = 0.00259263, No Iterations 1
GAMG:  Solving for p, Initial residual = 0.0205647, Final residual = 0.000572861, No Iterations 2
time step continuity errors : sum local = 0.00207404, global = 0.000180486, cumulative = 0.0261741
smoothSolver:  Solving for epsilon, Initial residual = 0.0070499, Final residual = 0.000324312, No Iterations 2
bounding epsilon, min: -1.24409 max: 2157.4 average: 34.2887
smoothSolver:  Solving for k, Initial residual = 0.00658146, Final residual = 0.000459972, No Iterations 2
bounding k, min: -0.165911 max: 146.563 average: 3.87361
ExecutionTime = 47.04 s  ClockTime = 47 s

Expression velocity :  min=16.8909 weightedQuantile0.1=30.1167 weightedAverage=34.5207 weightedQuantile0.9=43.6647 max=65.1294
Expression pressure :  min=-31.8782 weightedQuantile0.1=-8.53935 weightedAverage=-4.11235 weightedQuantile0.9=-0.176073 max=46.1312
Expression tke :  min=0.00183959 weightedQuantile0.1=0.16862 weightedAverage=3.87379 weightedQuantile0.9=8.96641 max=146.563
Time = 49

smoothSolver:  Solving for Ux, Initial residual = 0.0130839, Final residual = 0.000854342, No Iterations 2
smoothSolver:  Solving for Uy, Initial residual = 0.0328965, Final residual = 0.00276372, No Iterations 1
smoothSolver:  Solving for Uz, Initial residual = 0.0303462, Final residual = 0.00242376, No Iterations 1
GAMG:  Solving for p, Initial residual = 0.0199141, Final residual = 0.000572806, No Iterations 2
time step continuity errors : sum local = 0.00202664, global = 9.69807e-05, cumulative = 0.026271
smoothSolver:  Solving for epsilon, Initial residual = 0.00706829, Final residual = 0.000322309, No Iterations 2
bounding epsilon, min: -0.920236 max: 2165.89 average: 34.4742
smoothSolver:  Solving for k, Initial residual = 0.00655456, Final residual = 0.000454677, No Iterations 2
bounding k, min: -0.156272 max: 146.47 average: 3.9183
ExecutionTime = 47.92 s  ClockTime = 48 s

Expression velocity :  min=17.05 weightedQuantile0.1=30.2459 weightedAverage=34.6335 weightedQuantile0.9=43.7 max=64.6926
Expression pressure :  min=-27.8055 weightedQuantile0.1=-8.06023 weightedAverage=-3.74666 weightedQuantile0.9=0.211847 max=42.946
Expression tke :  min=0.00188068 weightedQuantile0.1=0.170054 weightedAverage=3.91848 weightedQuantile0.9=9.08358 max=146.47
Time = 50

smoothSolver:  Solving for Ux, Initial residual = 0.0127376, Final residual = 0.000831922, No Iterations 2
smoothSolver:  Solving for Uy, Initial residual = 0.030217, Final residual = 0.0024261, No Iterations 1
smoothSolver:  Solving for Uz, Initial residual = 0.0283154, Final residual = 0.00229355, No Iterations 1
GAMG:  Solving for p, Initial residual = 0.019311, Final residual = 0.000553407, No Iterations 2
time step continuity errors : sum local = 0.00191598, global = 8.54467e-05, cumulative = 0.0263565
smoothSolver:  Solving for epsilon, Initial residual = 0.00707227, Final residual = 0.00032417, No Iterations 2
bounding epsilon, min: -1.37898 max: 2180.68 average: 34.6527
smoothSolver:  Solving for k, Initial residual = 0.0064542, Final residual = 0.000450636, No Iterations 2
bounding k, min: -0.162837 max: 146.421 average: 3.96212
ExecutionTime = 48.82 s  ClockTime = 49 s

Expression velocity :  min=17.2091 weightedQuantile0.1=30.3723 weightedAverage=34.7433 weightedQuantile0.9=43.7 max=64.2239
Expression pressure :  min=-24.0657 weightedQuantile0.1=-7.58927 weightedAverage=-3.30243 weightedQuantile0.9=0.677169 max=40.0762
Expression tke :  min=0.00192142 weightedQuantile0.1=0.171512 weightedAverage=3.96231 weightedQuantile0.9=9.1913 max=146.421
Time = 51

smoothSolver:  Solving for Ux, Initial residual = 0.0124333, Final residual = 0.000812318, No Iterations 2
smoothSolver:  Solving for Uy, Initial residual = 0.0283132, Final residual = 0.00217551, No Iterations 1
smoothSolver:  Solving for Uz, Initial residual = 0.0265351, Final residual = 0.00219807, No Iterations 1
GAMG:  Solving for p, Initial residual = 0.0187806, Final residual = 0.000560231, No Iterations 2
time step continuity errors : sum local = 0.00189883, global = 0.000124593, cumulative = 0.0264811
smoothSolver:  Solving for epsilon, Initial residual = 0.00708155, Final residual = 0.000329998, No Iterations 2
bounding epsilon, min: -1.00185 max: 2183.54 average: 34.8259
smoothSolver:  Solving for k, Initial residual = 0.00646622, Final residual = 0.000446473, No Iterations 2
bounding k, min: -0.161867 max: 146.399 average: 4.00453
ExecutionTime = 49.71 s  ClockTime = 50 s

Expression velocity :  min=17.3677 weightedQuantile0.1=30.4931 weightedAverage=34.8491 weightedQuantile0.9=43.7214 max=63.7272
Expression pressure :  min=-20.5847 weightedQuantile0.1=-7.15375 weightedAverage=-2.78343 weightedQuantile0.9=1.23564 max=37.5472
Expression tke :  min=0.00196542 weightedQuantile0.1=0.173205 weightedAverage=4.00472 weightedQuantile0.9=9.29345 max=146.399
Time = 52

smoothSolver:  Solving for Ux, Initial residual = 0.0122316, Final residual = 0.000802048, No Iterations 2
smoothSolver:  Solving for Uy, Initial residual = 0.0266487, Final residual = 0.00199057, No Iterations 1
smoothSolver:  Solving for Uz, Initial residual = 0.0253332, Final residual = 0.00225055, No Iterations 1
GAMG:  Solving for p, Initial residual = 0.0184326, Final residual = 0.000575353, No Iterations 2
time step continuity errors : sum local = 0.00191128, global = 0.00016275, cumulative = 0.0266438
smoothSolver:  Solving for epsilon, Initial residual = 0.00712716, Final residual = 0.000332501, No Iterations 2
bounding epsilon, min: -0.608173 max: 2197.52 average: 34.9924
smoothSolver:  Solving for k, Initial residual = 0.00641697, Final residual = 0.000444334, No Iterations 2
bounding k, min: -0.163659 max: 146.41 average: 4.0463
ExecutionTime = 50.64 s  ClockTime = 51 s

Expression velocity :  min=17.5138 weightedQuantile0.1=30.6092 weightedAverage=34.9501 weightedQuantile0.9=43.7471 max=63.2065
Expression pressure :  min=-19.7569 weightedQuantile0.1=-6.74513 weightedAverage=-2.18078 weightedQuantile0.9=1.91422 max=35.3933
Expression tke :  min=0.00201206 weightedQuantile0.1=0.174672 weightedAverage=4.04641 weightedQuantile0.9=9.37875 max=146.41
Time = 53

smoothSolver:  Solving for Ux, Initial residual = 0.0118568, Final residual = 0.000773418, No Iterations 2
smoothSolver:  Solving for Uy, Initial residual = 0.025543, Final residual = 0.00183213, No Iterations 1
smoothSolver:  Solving for Uz, Initial residual = 0.0239102, Final residual = 0.002054, No Iterations 1
GAMG:  Solving for p, Initial residual = 0.0178432, Final residual = 0.000547001, No Iterations 2
time step continuity errors : sum local = 0.00178213, global = 0.000166544, cumulative = 0.0268104
smoothSolver:  Solving for epsilon, Initial residual = 0.00716214, Final residual = 0.000338311, No Iterations 2
bounding epsilon, min: -1.09676 max: 2204.41 average: 35.1553
smoothSolver:  Solving for k, Initial residual = 0.00642535, Final residual = 0.000442336, No Iterations 2
bounding k, min: -0.216988 max: 146.427 average: 4.08715
ExecutionTime = 51.52 s  ClockTime = 52 s

Expression velocity :  min=17.6585 weightedQuantile0.1=30.7182 weightedAverage=35.0462 weightedQuantile0.9=43.7947 max=62.666
Expression pressure :  min=-19.3992 weightedQuantile0.1=-6.45104 weightedAverage=-1.64318 weightedQuantile0.9=2.50866 max=33.3955
Expression tke :  min=0.00206036 weightedQuantile0.1=0.175948 weightedAverage=4.08734 weightedQuantile0.9=9.45526 max=146.427
Time = 54

smoothSolver:  Solving for Ux, Initial residual = 0.0115149, Final residual = 0.000752632, No Iterations 2
smoothSolver:  Solving for Uy, Initial residual = 0.0241244, Final residual = 0.00169514, No Iterations 1
smoothSolver:  Solving for Uz, Initial residual = 0.0223233, Final residual = 0.00199175, No Iterations 1
GAMG:  Solving for p, Initial residual = 0.017357, Final residual = 0.00055751, No Iterations 2
time step continuity errors : sum local = 0.00178311, global = 0.000156849, cumulative = 0.0269672
smoothSolver:  Solving for epsilon, Initial residual = 0.00728682, Final residual = 0.000341932, No Iterations 2
bounding epsilon, min: -0.661053 max: 2212.71 average: 35.3126
smoothSolver:  Solving for k, Initial residual = 0.00638781, Final residual = 0.000441695, No Iterations 2
bounding k, min: -0.16788 max: 146.469 average: 4.12778
ExecutionTime = 52.43 s  ClockTime = 53 s

Expression velocity :  min=17.8029 weightedQuantile0.1=30.8205 weightedAverage=35.138 weightedQuantile0.9=43.8421 max=62.1089
Expression pressure :  min=-19.0189 weightedQuantile0.1=-6.12529 weightedAverage=-1.07415 weightedQuantile0.9=3.09209 max=31.6041
Expression tke :  min=0.00210939 weightedQuantile0.1=0.177274 weightedAverage=4.12793 weightedQuantile0.9=9.55528 max=146.469
Time = 55

smoothSolver:  Solving for Ux, Initial residual = 0.0112544, Final residual = 0.000733491, No Iterations 2
smoothSolver:  Solving for Uy, Initial residual = 0.023032, Final residual = 0.00160972, No Iterations 1
smoothSolver:  Solving for Uz, Initial residual = 0.0211278, Final residual = 0.00193723, No Iterations 1
GAMG:  Solving for p, Initial residual = 0.0169734, Final residual = 0.000564763, No Iterations 2
time step continuity errors : sum local = 0.0017739, global = 0.000149957, cumulative = 0.0271172
smoothSolver:  Solving for epsilon, Initial residual = 0.0072977, Final residual = 0.000348163, No Iterations 2
bounding epsilon, min: -0.968038 max: 2217.91 average: 35.4694
smoothSolver:  Solving for k, Initial residual = 0.00636887, Final residual = 0.000440834, No Iterations 2
bounding k, min: -0.16707 max: 146.507 average: 4.16775
ExecutionTime = 53.32 s  ClockTime = 54 s

Expression velocity :  min=17.9296 weightedQuantile0.1=30.9232 weightedAverage=35.2256 weightedQuantile0.9=43.8875 max=61.6057
Expression pressure :  min=-18.6151 weightedQuantile0.1=-5.77006 weightedAverage=-0.478711 weightedQuantile0.9=3.6647 max=30.0031
Expression tke :  min=0.00215802 weightedQuantile0.1=0.178603 weightedAverage=4.16788 weightedQuantile0.9=9.64891 max=146.507
Time = 56

smoothSolver:  Solving for Ux, Initial residual = 0.0110079, Final residual = 0.000715969, No Iterations 2
smoothSolver:  Solving for Uy, Initial residual = 0.0219465, Final residual = 0.00155221, No Iterations 1
smoothSolver:  Solving for Uz, Initial residual = 0.0201054, Final residual = 0.00190057, No Iterations 1
GAMG:  Solving for p, Initial residual = 0.016608, Final residual = 0.000558439, No Iterations 2
time step continuity errors : sum local = 0.00172402, global = 0.00013838, cumulative = 0.0272556
smoothSolver:  Solving for epsilon, Initial residual = 0.00748703, Final residual = 0.000345338, No Iterations 2
bounding epsilon, min: -0.945507 max: 2226.96 average: 35.6183
smoothSolver:  Solving for k, Initial residual = 0.00634915, Final residual = 0.00043943, No Iterations 2
bounding k, min: -0.170558 max: 146.566 average: 4.20701
ExecutionTime = 54.21 s  ClockTime = 54 s

Expression velocity :  min=18.0613 weightedQuantile0.1=31.0193 weightedAverage=35.3092 weightedQuantile0.9=43.925 max=61.5796
Expression pressure :  min=-18.2036 weightedQuantile0.1=-5.39518 weightedAverage=0.116273 weightedQuantile0.9=4.23075 max=28.5695
Expression tke :  min=0.00220536 weightedQuantile0.1=0.180067 weightedAverage=4.20714 weightedQuantile0.9=9.71028 max=146.566
Time = 57

smoothSolver:  Solving for Ux, Initial residual = 0.0108044, Final residual = 0.000699218, No Iterations 2
smoothSolver:  Solving for Uy, Initial residual = 0.0211162, Final residual = 0.00150654, No Iterations 1
smoothSolver:  Solving for Uz, Initial residual = 0.0192125, Final residual = 0.00185458, No Iterations 1
GAMG:  Solving for p, Initial residual = 0.0163134, Final residual = 0.000545553, No Iterations 2
time step continuity errors : sum local = 0.00165592, global = 0.000125151, cumulative = 0.0273807
smoothSolver:  Solving for epsilon, Initial residual = 0.00745235, Final residual = 0.000351786, No Iterations 2
bounding epsilon, min: -0.858175 max: 2238 average: 35.7711
smoothSolver:  Solving for k, Initial residual = 0.00633854, Final residual = 0.00043821, No Iterations 2
bounding k, min: -0.169362 max: 146.606 average: 4.24593
ExecutionTime = 55.11 s  ClockTime = 55 s

Expression velocity :  min=18.1926 weightedQuantile0.1=31.108 weightedAverage=35.389 weightedQuantile0.9=43.9611 max=61.5811
Expression pressure :  min=-17.7912 weightedQuantile0.1=-5.02083 weightedAverage=0.686343 weightedQuantile0.9=4.74539 max=27.2616
Expression tke :  min=0.00225038 weightedQuantile0.1=0.181307 weightedAverage=4.24606 weightedQuantile0.9=9.7833 max=146.606
Time = 58

smoothSolver:  Solving for Ux, Initial residual = 0.0106005, Final residual = 0.000683714, No Iterations 2
smoothSolver:  Solving for Uy, Initial residual = 0.0202777, Final residual = 0.00147568, No Iterations 1
smoothSolver:  Solving for Uz, Initial residual = 0.0184245, Final residual = 0.00183116, No Iterations 1
GAMG:  Solving for p, Initial residual = 0.0160007, Final residual = 0.000529389, No Iterations 2
time step continuity errors : sum local = 0.00158117, global = 0.000112596, cumulative = 0.0274933
smoothSolver:  Solving for epsilon, Initial residual = 0.00755254, Final residual = 0.000352326, No Iterations 2
bounding epsilon, min: -0.700653 max: 2247.94 average: 35.9133
smoothSolver:  Solving for k, Initial residual = 0.00635103, Final residual = 0.000437065, No Iterations 2
bounding k, min: -0.176476 max: 146.656 average: 4.28393
ExecutionTime = 56 s  ClockTime = 56 s

Expression velocity :  min=18.3104 weightedQuantile0.1=31.1925 weightedAverage=35.4653 weightedQuantile0.9=43.9846 max=61.5613
Expression pressure :  min=-17.3765 weightedQuantile0.1=-4.64912 weightedAverage=1.22345 weightedQuantile0.9=5.21354 max=27.7869
Expression tke :  min=0.00229234 weightedQuantile0.1=0.182648 weightedAverage=4.28403 weightedQuantile0.9=9.86 max=146.656
Time = 59

smoothSolver:  Solving for Ux, Initial residual = 0.0104093, Final residual = 0.000668934, No Iterations 2
smoothSolver:  Solving for Uy, Initial residual = 0.0195682, Final residual = 0.00144491, No Iterations 1
smoothSolver:  Solving for Uz, Initial residual = 0.0176598, Final residual = 0.000511252, No Iterations 2
GAMG:  Solving for p, Initial residual = 0.0159103, Final residual = 0.000501902, No Iterations 2
time step continuity errors : sum local = 0.0014756, global = 0.000102359, cumulative = 0.0275957
smoothSolver:  Solving for epsilon, Initial residual = 0.00753684, Final residual = 0.000357596, No Iterations 2
bounding epsilon, min: -0.791919 max: 2262.9 average: 36.0563
smoothSolver:  Solving for k, Initial residual = 0.00630123, Final residual = 0.000436991, No Iterations 2
bounding k, min: -0.168554 max: 146.676 average: 4.32162
ExecutionTime = 56.89 s  ClockTime = 57 s

Expression velocity :  min=18.4336 weightedQuantile0.1=31.2733 weightedAverage=35.5384 weightedQuantile0.9=43.9913 max=61.519
Expression pressure :  min=-16.9702 weightedQuantile0.1=-4.2777 weightedAverage=1.70214 weightedQuantile0.9=5.61 max=28.3213
Expression tke :  min=0.00233054 weightedQuantile0.1=0.183807 weightedAverage=4.32173 weightedQuantile0.9=9.93492 max=146.676
Time = 60

smoothSolver:  Solving for Ux, Initial residual = 0.0102345, Final residual = 0.000656338, No Iterations 2
smoothSolver:  Solving for Uy, Initial residual = 0.018995, Final residual = 0.00146595, No Iterations 1
smoothSolver:  Solving for Uz, Initial residual = 0.0168272, Final residual = 0.00166424, No Iterations 1
[...]
GAMG:  Solving for p, Initial residual = 0.000600195, Final residual = 4.34506e-05, No Iterations 2
time step continuity errors : sum local = 2.55408e-05, global = 4.06551e-06, cumulative = 0.0353171
smoothSolver:  Solving for epsilon, Initial residual = 0.000380029, Final residual = 1.30129e-05, No Iterations 2
smoothSolver:  Solving for k, Initial residual = 0.00068748, Final residual = 3.6774e-05, No Iterations 2
ExecutionTime = 1653.39 s  ClockTime = 1665 s

Expression velocity :  min=78.6011 weightedQuantile0.1=83.3 weightedAverage=95.1261 weightedQuantile0.9=100.837 max=101.293
Expression pressure :  min=-152.991 weightedQuantile0.1=-115.934 weightedAverage=-69.6469 weightedQuantile0.9=-22 max=-7.32523
Expression tke :  min=0.928104 weightedQuantile0.1=1.47009 weightedAverage=12.5904 weightedQuantile0.9=19.4169 max=274.185
Time = 1817

smoothSolver:  Solving for Ux, Initial residual = 0.00455, Final residual = 0.000307943, No Iterations 2
smoothSolver:  Solving for Uy, Initial residual = 0.00216089, Final residual = 7.61485e-05, No Iterations 1
smoothSolver:  Solving for Uz, Initial residual = 0.00238874, Final residual = 0.000212294, No Iterations 1
GAMG:  Solving for p, Initial residual = 0.000607807, Final residual = 4.43195e-05, No Iterations 2
time step continuity errors : sum local = 2.60508e-05, global = 4.34503e-06, cumulative = 0.0353214
smoothSolver:  Solving for epsilon, Initial residual = 0.00033973, Final residual = 1.32457e-05, No Iterations 2
smoothSolver:  Solving for k, Initial residual = 0.000715521, Final residual = 3.66312e-05, No Iterations 2
ExecutionTime = 1654.25 s  ClockTime = 1666 s

Expression velocity :  min=78.6373 weightedQuantile0.1=83.3 weightedAverage=95.1675 weightedQuantile0.9=100.881 max=101.338
Expression pressure :  min=-153.12 weightedQuantile0.1=-115.978 weightedAverage=-69.7043 weightedQuantile0.9=-22 max=-7.3311
Expression tke :  min=0.929857 weightedQuantile0.1=1.47238 weightedAverage=12.6036 weightedQuantile0.9=19.4291 max=274.439
Time = 1818

smoothSolver:  Solving for Ux, Initial residual = 0.00454982, Final residual = 0.000308086, No Iterations 2
smoothSolver:  Solving for Uy, Initial residual = 0.00205966, Final residual = 7.25894e-05, No Iterations 1
smoothSolver:  Solving for Uz, Initial residual = 0.00239843, Final residual = 0.000204222, No Iterations 1
GAMG:  Solving for p, Initial residual = 0.00059431, Final residual = 4.29606e-05, No Iterations 2
time step continuity errors : sum local = 2.52723e-05, global = 3.98296e-06, cumulative = 0.0353254
smoothSolver:  Solving for epsilon, Initial residual = 0.000380022, Final residual = 1.30212e-05, No Iterations 2
smoothSolver:  Solving for k, Initial residual = 0.0006817, Final residual = 3.69419e-05, No Iterations 2
ExecutionTime = 1655.13 s  ClockTime = 1667 s

Expression velocity :  min=78.6735 weightedQuantile0.1=83.4 weightedAverage=95.209 weightedQuantile0.9=100.925 max=101.382
Expression pressure :  min=-153.24 weightedQuantile0.1=-116.037 weightedAverage=-69.7613 weightedQuantile0.9=-22 max=-7.33674
Expression tke :  min=0.931618 weightedQuantile0.1=1.47442 weightedAverage=12.617 weightedQuantile0.9=19.4371 max=274.713
Time = 1819

smoothSolver:  Solving for Ux, Initial residual = 0.00454958, Final residual = 0.000308107, No Iterations 2
smoothSolver:  Solving for Uy, Initial residual = 0.00213049, Final residual = 7.63324e-05, No Iterations 1
smoothSolver:  Solving for Uz, Initial residual = 0.00238384, Final residual = 0.00021142, No Iterations 1
GAMG:  Solving for p, Initial residual = 0.000602971, Final residual = 4.35471e-05, No Iterations 2
time step continuity errors : sum local = 2.56165e-05, global = 4.24354e-06, cumulative = 0.0353297
smoothSolver:  Solving for epsilon, Initial residual = 0.000340419, Final residual = 1.32331e-05, No Iterations 2
smoothSolver:  Solving for k, Initial residual = 0.000708719, Final residual = 3.67367e-05, No Iterations 2
ExecutionTime = 1655.99 s  ClockTime = 1668 s

Expression velocity :  min=78.7104 weightedQuantile0.1=83.4 weightedAverage=95.2504 weightedQuantile0.9=100.969 max=101.427
Expression pressure :  min=-153.367 weightedQuantile0.1=-116.159 weightedAverage=-69.8179 weightedQuantile0.9=-22 max=-7.34242
Expression tke :  min=0.933386 weightedQuantile0.1=1.4766 weightedAverage=12.6302 weightedQuantile0.9=19.4465 max=274.972
Time = 1820

smoothSolver:  Solving for Ux, Initial residual = 0.00454927, Final residual = 0.000308238, No Iterations 2
smoothSolver:  Solving for Uy, Initial residual = 0.00202137, Final residual = 7.17811e-05, No Iterations 1
smoothSolver:  Solving for Uz, Initial residual = 0.00235094, Final residual = 0.000202674, No Iterations 1
GAMG:  Solving for p, Initial residual = 0.000587994, Final residual = 4.21036e-05, No Iterations 2
time step continuity errors : sum local = 2.47875e-05, global = 3.88835e-06, cumulative = 0.0353336
smoothSolver:  Solving for epsilon, Initial residual = 0.00037999, Final residual = 1.29845e-05, No Iterations 2
smoothSolver:  Solving for k, Initial residual = 0.000686238, Final residual = 3.66447e-05, No Iterations 2
ExecutionTime = 1656.85 s  ClockTime = 1669 s

Expression velocity :  min=78.7467 weightedQuantile0.1=83.5 weightedAverage=95.2918 weightedQuantile0.9=101.014 max=101.471
Expression pressure :  min=-153.485 weightedQuantile0.1=-116.234 weightedAverage=-69.874 weightedQuantile0.9=-22 max=-7.34781
Expression tke :  min=0.935163 weightedQuantile0.1=1.47867 weightedAverage=12.6435 weightedQuantile0.9=19.4536 max=275.245
Time = 1821

smoothSolver:  Solving for Ux, Initial residual = 0.00454883, Final residual = 0.000308243, No Iterations 2
smoothSolver:  Solving for Uy, Initial residual = 0.00210522, Final residual = 7.57332e-05, No Iterations 1
smoothSolver:  Solving for Uz, Initial residual = 0.0023106, Final residual = 0.000208663, No Iterations 1
GAMG:  Solving for p, Initial residual = 0.000595771, Final residual = 4.28621e-05, No Iterations 2
time step continuity errors : sum local = 2.5234e-05, global = 4.16663e-06, cumulative = 0.0353377
smoothSolver:  Solving for epsilon, Initial residual = 0.000339519, Final residual = 1.32122e-05, No Iterations 2
smoothSolver:  Solving for k, Initial residual = 0.000706649, Final residual = 3.69421e-05, No Iterations 2
ExecutionTime = 1657.72 s  ClockTime = 1670 s

Expression velocity :  min=78.7834 weightedQuantile0.1=83.5 weightedAverage=95.3333 weightedQuantile0.9=101.059 max=101.516
Expression pressure :  min=-153.612 weightedQuantile0.1=-116.279 weightedAverage=-69.9299 weightedQuantile0.9=-22 max=-7.35329
Expression tke :  min=0.936947 weightedQuantile0.1=1.48059 weightedAverage=12.6568 weightedQuantile0.9=19.4609 max=275.502
Time = 1822

smoothSolver:  Solving for Ux, Initial residual = 0.00454831, Final residual = 0.00030835, No Iterations 2
smoothSolver:  Solving for Uy, Initial residual = 0.00198593, Final residual = 7.19922e-05, No Iterations 1
smoothSolver:  Solving for Uz, Initial residual = 0.00232243, Final residual = 0.000197985, No Iterations 1
GAMG:  Solving for p, Initial residual = 0.000577947, Final residual = 4.20518e-05, No Iterations 2
time step continuity errors : sum local = 2.47759e-05, global = 3.89125e-06, cumulative = 0.0353416
smoothSolver:  Solving for epsilon, Initial residual = 0.00037847, Final residual = 1.29707e-05, No Iterations 2
smoothSolver:  Solving for k, Initial residual = 0.000688763, Final residual = 3.67253e-05, No Iterations 2
ExecutionTime = 1658.58 s  ClockTime = 1671 s

Expression velocity :  min=78.8196 weightedQuantile0.1=83.5 weightedAverage=95.3747 weightedQuantile0.9=101.104 max=101.56
Expression pressure :  min=-153.73 weightedQuantile0.1=-116.451 weightedAverage=-69.9861 weightedQuantile0.9=-22 max=-7.35873
Expression tke :  min=0.938739 weightedQuantile0.1=1.48253 weightedAverage=12.6702 weightedQuantile0.9=19.4671 max=275.78
Time = 1823

smoothSolver:  Solving for Ux, Initial residual = 0.00454777, Final residual = 0.000308348, No Iterations 2
smoothSolver:  Solving for Uy, Initial residual = 0.00209645, Final residual = 7.55273e-05, No Iterations 1
smoothSolver:  Solving for Uz, Initial residual = 0.00227069, Final residual = 0.000209519, No Iterations 1
GAMG:  Solving for p, Initial residual = 0.000599106, Final residual = 4.27117e-05, No Iterations 2
time step continuity errors : sum local = 2.51647e-05, global = 4.11689e-06, cumulative = 0.0353457
smoothSolver:  Solving for epsilon, Initial residual = 0.000339639, Final residual = 1.32191e-05, No Iterations 2
smoothSolver:  Solving for k, Initial residual = 0.000715102, Final residual = 3.6702e-05, No Iterations 2
ExecutionTime = 1659.44 s  ClockTime = 1671 s

Expression velocity :  min=78.8565 weightedQuantile0.1=83.6 weightedAverage=95.4162 weightedQuantile0.9=101.148 max=101.605
Expression pressure :  min=-153.858 weightedQuantile0.1=-116.523 weightedAverage=-70.0419 weightedQuantile0.9=-22 max=-7.36415
Expression tke :  min=0.940539 weightedQuantile0.1=1.48446 weightedAverage=12.6835 weightedQuantile0.9=19.4723 max=276.035
Time = 1824

smoothSolver:  Solving for Ux, Initial residual = 0.00454726, Final residual = 0.000308474, No Iterations 2
smoothSolver:  Solving for Uy, Initial residual = 0.00203102, Final residual = 7.27696e-05, No Iterations 1
smoothSolver:  Solving for Uz, Initial residual = 0.0023426, Final residual = 0.000200607, No Iterations 1
GAMG:  Solving for p, Initial residual = 0.000589911, Final residual = 4.09033e-05, No Iterations 2
time step continuity errors : sum local = 2.41178e-05, global = 3.69459e-06, cumulative = 0.0353494
smoothSolver:  Solving for epsilon, Initial residual = 0.000379062, Final residual = 1.29608e-05, No Iterations 2
smoothSolver:  Solving for k, Initial residual = 0.000684419, Final residual = 3.69559e-05, No Iterations 2
ExecutionTime = 1660.3 s  ClockTime = 1672 s

Expression velocity :  min=78.8919 weightedQuantile0.1=83.6 weightedAverage=95.4577 weightedQuantile0.9=101.192 max=101.649
Expression pressure :  min=-153.975 weightedQuantile0.1=-116.659 weightedAverage=-70.0973 weightedQuantile0.9=-22 max=-7.36918
Expression tke :  min=0.942347 weightedQuantile0.1=1.48665 weightedAverage=12.697 weightedQuantile0.9=19.4783 max=276.31
Time = 1825

smoothSolver:  Solving for Ux, Initial residual = 0.0045467, Final residual = 0.000308463, No Iterations 2
smoothSolver:  Solving for Uy, Initial residual = 0.00212214, Final residual = 7.61442e-05, No Iterations 1
smoothSolver:  Solving for Uz, Initial residual = 0.00238878, Final residual = 0.00021155, No Iterations 1
GAMG:  Solving for p, Initial residual = 0.000599479, Final residual = 4.17019e-05, No Iterations 2
time step continuity errors : sum local = 2.45886e-05, global = 4.00899e-06, cumulative = 0.0353534
smoothSolver:  Solving for epsilon, Initial residual = 0.000339524, Final residual = 1.32145e-05, No Iterations 2
smoothSolver:  Solving for k, Initial residual = 0.000710695, Final residual = 3.67838e-05, No Iterations 2
ExecutionTime = 1661.16 s  ClockTime = 1673 s

Expression velocity :  min=78.9286 weightedQuantile0.1=83.6 weightedAverage=95.4992 weightedQuantile0.9=101.237 max=101.694
Expression pressure :  min=-154.1 weightedQuantile0.1=-116.783 weightedAverage=-70.1525 weightedQuantile0.9=-22 max=-7.37438
Expression tke :  min=0.944162 weightedQuantile0.1=1.48807 weightedAverage=12.7102 weightedQuantile0.9=19.4819 max=276.569
Time = 1826

smoothSolver:  Solving for Ux, Initial residual = 0.00454597, Final residual = 0.000308568, No Iterations 2
smoothSolver:  Solving for Uy, Initial residual = 0.00203625, Final residual = 7.2573e-05, No Iterations 1
smoothSolver:  Solving for Uz, Initial residual = 0.00239898, Final residual = 0.000203856, No Iterations 1
GAMG:  Solving for p, Initial residual = 0.000587196, Final residual = 4.04933e-05, No Iterations 2
time step continuity errors : sum local = 2.3895e-05, global = 3.67268e-06, cumulative = 0.0353571
smoothSolver:  Solving for epsilon, Initial residual = 0.000379623, Final residual = 1.29653e-05, No Iterations 2
smoothSolver:  Solving for k, Initial residual = 0.000688388, Final residual = 3.66904e-05, No Iterations 2
ExecutionTime = 1662.02 s  ClockTime = 1674 s

Expression velocity :  min=78.9642 weightedQuantile0.1=83.7 weightedAverage=95.5407 weightedQuantile0.9=101.281 max=101.738
Expression pressure :  min=-154.218 weightedQuantile0.1=-116.916 weightedAverage=-70.2078 weightedQuantile0.9=-22 max=-7.37941
Expression tke :  min=0.945986 weightedQuantile0.1=1.49014 weightedAverage=12.7237 weightedQuantile0.9=19.4863 max=276.844
Time = 1827

smoothSolver:  Solving for Ux, Initial residual = 0.00454534, Final residual = 0.000308564, No Iterations 2
smoothSolver:  Solving for Uy, Initial residual = 0.00209857, Final residual = 7.64735e-05, No Iterations 1
smoothSolver:  Solving for Uz, Initial residual = 0.00235656, Final residual = 0.000209933, No Iterations 1
GAMG:  Solving for p, Initial residual = 0.000592154, Final residual = 4.15333e-05, No Iterations 2
time step continuity errors : sum local = 2.45083e-05, global = 3.98461e-06, cumulative = 0.0353611
smoothSolver:  Solving for epsilon, Initial residual = 0.000340076, Final residual = 1.31872e-05, No Iterations 2
smoothSolver:  Solving for k, Initial residual = 0.000710039, Final residual = 3.68557e-05, No Iterations 2
ExecutionTime = 1662.88 s  ClockTime = 1675 s

Expression velocity :  min=79.001 weightedQuantile0.1=83.7 weightedAverage=95.5822 weightedQuantile0.9=101.326 max=101.783
Expression pressure :  min=-154.343 weightedQuantile0.1=-116.942 weightedAverage=-70.2632 weightedQuantile0.9=-23 max=-7.38465
Expression tke :  min=0.947817 weightedQuantile0.1=1.49208 weightedAverage=12.7371 weightedQuantile0.9=19.4898 max=277.101
Time = 1828

smoothSolver:  Solving for Ux, Initial residual = 0.00454463, Final residual = 0.000308667, No Iterations 2
smoothSolver:  Solving for Uy, Initial residual = 0.00201026, Final residual = 7.25073e-05, No Iterations 1
smoothSolver:  Solving for Uz, Initial residual = 0.0023837, Final residual = 0.000199804, No Iterations 1
GAMG:  Solving for p, Initial residual = 0.000578072, Final residual = 4.06406e-05, No Iterations 2
time step continuity errors : sum local = 2.40003e-05, global = 3.68818e-06, cumulative = 0.0353648
smoothSolver:  Solving for epsilon, Initial residual = 0.000378797, Final residual = 1.29332e-05, No Iterations 2
smoothSolver:  Solving for k, Initial residual = 0.000689297, Final residual = 3.67321e-05, No Iterations 2
ExecutionTime = 1663.75 s  ClockTime = 1676 s

Expression velocity :  min=79.0369 weightedQuantile0.1=83.7 weightedAverage=95.6237 weightedQuantile0.9=101.37 max=101.827
Expression pressure :  min=-154.463 weightedQuantile0.1=-116.996 weightedAverage=-70.3191 weightedQuantile0.9=-23 max=-7.38978
Expression tke :  min=0.949656 weightedQuantile0.1=1.49339 weightedAverage=12.7506 weightedQuantile0.9=19.492 max=277.381
Time = 1829

smoothSolver:  Solving for Ux, Initial residual = 0.00454406, Final residual = 0.00030867, No Iterations 2
smoothSolver:  Solving for Uy, Initial residual = 0.00210046, Final residual = 7.59745e-05, No Iterations 1
smoothSolver:  Solving for Uz, Initial residual = 0.00234348, Final residual = 0.000210303, No Iterations 1
GAMG:  Solving for p, Initial residual = 0.000585877, Final residual = 4.14001e-05, No Iterations 2
time step continuity errors : sum local = 2.44486e-05, global = 3.9505e-06, cumulative = 0.0353687
smoothSolver:  Solving for epsilon, Initial residual = 0.000339553, Final residual = 1.31905e-05, No Iterations 2
smoothSolver:  Solving for k, Initial residual = 0.000713405, Final residual = 3.65652e-05, No Iterations 2
ExecutionTime = 1664.62 s  ClockTime = 1677 s

Expression velocity :  min=79.0735 weightedQuantile0.1=83.8 weightedAverage=95.6653 weightedQuantile0.9=101.414 max=101.872
Expression pressure :  min=-154.589 weightedQuantile0.1=-117.041 weightedAverage=-70.3747 weightedQuantile0.9=-23 max=-7.39496
Expression tke :  min=0.951504 weightedQuantile0.1=1.49546 weightedAverage=12.7639 weightedQuantile0.9=19.4962 max=277.638
Time = 1830

smoothSolver:  Solving for Ux, Initial residual = 0.00454342, Final residual = 0.00030878, No Iterations 2
smoothSolver:  Solving for Uy, Initial residual = 0.00202056, Final residual = 7.18491e-05, No Iterations 1
smoothSolver:  Solving for Uz, Initial residual = 0.00237635, Final residual = 0.000201807, No Iterations 1
GAMG:  Solving for p, Initial residual = 0.0005706, Final residual = 4.06121e-05, No Iterations 2
time step continuity errors : sum local = 2.40019e-05, global = 3.69028e-06, cumulative = 0.0353724
smoothSolver:  Solving for epsilon, Initial residual = 0.000378582, Final residual = 1.29404e-05, No Iterations 2
smoothSolver:  Solving for k, Initial residual = 0.000682854, Final residual = 3.68431e-05, No Iterations 2
ExecutionTime = 1665.49 s  ClockTime = 1678 s

Expression velocity :  min=79.109 weightedQuantile0.1=83.8 weightedAverage=95.7068 weightedQuantile0.9=101.459 max=101.916
Expression pressure :  min=-154.709 weightedQuantile0.1=-117.176 weightedAverage=-70.4306 weightedQuantile0.9=-23 max=-7.40013
Expression tke :  min=0.953359 weightedQuantile0.1=1.49727 weightedAverage=12.7774 weightedQuantile0.9=19.5025 max=277.913
Time = 1831

smoothSolver:  Solving for Ux, Initial residual = 0.00454284, Final residual = 0.000308773, No Iterations 2
smoothSolver:  Solving for Uy, Initial residual = 0.00210011, Final residual = 7.58297e-05, No Iterations 1
smoothSolver:  Solving for Uz, Initial residual = 0.00237323, Final residual = 0.000210525, No Iterations 1
GAMG:  Solving for p, Initial residual = 0.000583575, Final residual = 4.24604e-05, No Iterations 2
time step continuity errors : sum local = 2.50941e-05, global = 4.1085e-06, cumulative = 0.0353765
smoothSolver:  Solving for epsilon, Initial residual = 0.000340221, Final residual = 1.32107e-05, No Iterations 2
smoothSolver:  Solving for k, Initial residual = 0.00070718, Final residual = 3.67939e-05, No Iterations 2
ExecutionTime = 1666.41 s  ClockTime = 1678 s

Expression velocity :  min=79.146 weightedQuantile0.1=83.8 weightedAverage=95.7484 weightedQuantile0.9=101.504 max=101.961
Expression pressure :  min=-154.835 weightedQuantile0.1=-117.254 weightedAverage=-70.487 weightedQuantile0.9=-23 max=-7.40575
Expression tke :  min=0.955222 weightedQuantile0.1=1.49857 weightedAverage=12.7908 weightedQuantile0.9=19.5071 max=278.175
Time = 1832

smoothSolver:  Solving for Ux, Initial residual = 0.00454227, Final residual = 0.000308896, No Iterations 2
smoothSolver:  Solving for Uy, Initial residual = 0.00202399, Final residual = 7.22117e-05, No Iterations 1
smoothSolver:  Solving for Uz, Initial residual = 0.00239423, Final residual = 0.000202948, No Iterations 1
GAMG:  Solving for p, Initial residual = 0.000573759, Final residual = 4.14463e-05, No Iterations 2
time step continuity errors : sum local = 2.45138e-05, global = 3.74423e-06, cumulative = 0.0353803
smoothSolver:  Solving for epsilon, Initial residual = 0.000378718, Final residual = 1.29111e-05, No Iterations 2
smoothSolver:  Solving for k, Initial residual = 0.000689472, Final residual = 3.67138e-05, No Iterations 2
ExecutionTime = 1667.28 s  ClockTime = 1679 s

Expression velocity :  min=79.181 weightedQuantile0.1=83.9 weightedAverage=95.7899 weightedQuantile0.9=101.548 max=102.006
Expression pressure :  min=-154.958 weightedQuantile0.1=-117.314 weightedAverage=-70.5435 weightedQuantile0.9=-23 max=-7.41099
Expression tke :  min=0.957093 weightedQuantile0.1=1.50026 weightedAverage=12.8044 weightedQuantile0.9=19.5131 max=278.451
Time = 1833

smoothSolver:  Solving for Ux, Initial residual = 0.00454178, Final residual = 0.000308894, No Iterations 2
smoothSolver:  Solving for Uy, Initial residual = 0.00210709, Final residual = 7.65031e-05, No Iterations 1
