/*---------------------------------------------------------------------------*\
| =========                 |                                                 |
| \\      /  F ield         | OpenFOAM: The Open Source CFD Toolbox           |
|  \\    /   O peration     | Version:  v2012                                 |
|   \\  /    A nd           | Website:  www.openfoam.com                      |
|    \\/     M anipulation  |                                                 |
\*---------------------------------------------------------------------------*/
Build  : _7bdb509494-20201222 OPENFOAM=2012
Arch   : "LSB;label=32;scalar=64"
Exec   : /home/dockeruser/OpenFOAM/OpenFOAM-v2012/platforms/linux64GccDPInt32Opt/bin/simpleFoam
Date   : Aug 25 2022
Time   : 21:47:08
Host   : 761029dbf954
PID    : 4197
I/O    : uncollated
Case   : /foamdata/of2012_projects/hotRoom6G_ABL_WTBMesh
nProcs : 1
trapFpe: Floating point exception trapping enabled (FOAM_SIGFPE).
fileModificationChecking : Monitoring run-time modified files using timeStampMaster (fileModificationSkew 5, maxFileModificationPolls 20)
allowSystemOperations : Allowing user-supplied system call operations

// * * * * * * * * * * * * * * * * * * * * * * * * * * * * * * * * * * * * * //
Create time

Create mesh for time = 0


SIMPLE: convergence criteria
    field p	 tolerance 0.01
    field U	 tolerance 0.001
    field "(k|epsilon|omega|f|v2)"	 tolerance 0.001

Reading field p

Reading field U

Reading/calculating face flux field phi

Selecting incompressible transport model Newtonian
Selecting turbulence model type RAS
Selecting RAS turbulence model kEpsilon
RAS
{
    RASModel        kEpsilon;
    turbulence      on;
    printCoeffs     on;
    Cmu             0.09;
    C1              1.44;
    C2              1.92;
    C3              0;
    sigmak          1;
    sigmaEps        1.3;
}

No MRF models present

No finite volume options present

Starting time loop

Time = 1

smoothSolver:  Solving for Ux, Initial residual = 1, Final residual = 0.0717636, No Iterations 2
smoothSolver:  Solving for Uy, Initial residual = 1, Final residual = 0.0631875, No Iterations 2
smoothSolver:  Solving for Uz, Initial residual = 1, Final residual = 0.0628566, No Iterations 5
GAMG:  Solving for p, Initial residual = 1, Final residual = 0.0326952, No Iterations 4
time step continuity errors : sum local = 0.000460049, global = -8.52871e-05, cumulative = -8.52871e-05
smoothSolver:  Solving for epsilon, Initial residual = 0.976144, Final residual = 2.94061e-05, No Iterations 1
smoothSolver:  Solving for k, Initial residual = 1, Final residual = 0.0189541, No Iterations 1
bounding k, min: -0.438738 max: 0.375 average: 0.0510584
ExecutionTime = 4.29 s  ClockTime = 5 s

Time = 2

smoothSolver:  Solving for Ux, Initial residual = 0.0888905, Final residual = 0.00232841, No Iterations 2
smoothSolver:  Solving for Uy, Initial residual = 0.489759, Final residual = 0.0141781, No Iterations 1
smoothSolver:  Solving for Uz, Initial residual = 0.608023, Final residual = 0.0369102, No Iterations 1
GAMG:  Solving for p, Initial residual = 0.586501, Final residual = 0.0391117, No Iterations 4
time step continuity errors : sum local = 0.0167251, global = 0.00421877, cumulative = 0.00413348
smoothSolver:  Solving for epsilon, Initial residual = 0.981191, Final residual = 0.000910271, No Iterations 1
bounding epsilon, min: -8.60832 max: 14.855 average: 0.10624
smoothSolver:  Solving for k, Initial residual = 0.312908, Final residual = 0.0186975, No Iterations 1
bounding k, min: -0.323359 max: 0.375 average: 0.0232493
ExecutionTime = 6.34 s  ClockTime = 8 s

Time = 3

smoothSolver:  Solving for Ux, Initial residual = 0.139155, Final residual = 0.00363463, No Iterations 2
smoothSolver:  Solving for Uy, Initial residual = 0.373765, Final residual = 0.00864045, No Iterations 2
smoothSolver:  Solving for Uz, Initial residual = 0.458818, Final residual = 0.00844304, No Iterations 2
GAMG:  Solving for p, Initial residual = 0.767671, Final residual = 0.0482548, No Iterations 2
time step continuity errors : sum local = 0.0134778, global = 0.00315839, cumulative = 0.00729187
smoothSolver:  Solving for epsilon, Initial residual = 0.719468, Final residual = 0.00893149, No Iterations 1
bounding epsilon, min: -11.9321 max: 14.855 average: 0.0220848
smoothSolver:  Solving for k, Initial residual = 0.296469, Final residual = 0.0218431, No Iterations 1
bounding k, min: -0.50269 max: 0.63962 average: 0.0218288
ExecutionTime = 8.34 s  ClockTime = 11 s

Time = 4

smoothSolver:  Solving for Ux, Initial residual = 0.0975557, Final residual = 0.00943271, No Iterations 1
smoothSolver:  Solving for Uy, Initial residual = 0.304758, Final residual = 0.0302815, No Iterations 1
smoothSolver:  Solving for Uz, Initial residual = 0.549416, Final residual = 0.0527917, No Iterations 1
GAMG:  Solving for p, Initial residual = 0.358893, Final residual = 0.0349132, No Iterations 1
time step continuity errors : sum local = 0.0191065, global = -0.000390789, cumulative = 0.00690108
smoothSolver:  Solving for epsilon, Initial residual = 0.733405, Final residual = 0.00621741, No Iterations 1
bounding epsilon, min: -7.56727 max: 14.855 average: 0.0251411
smoothSolver:  Solving for k, Initial residual = 0.361445, Final residual = 0.0177526, No Iterations 1
bounding k, min: -0.364919 max: 1.37661 average: 0.0224213
ExecutionTime = 10.27 s  ClockTime = 13 s

Time = 5

smoothSolver:  Solving for Ux, Initial residual = 0.0960423, Final residual = 0.00934746, No Iterations 1
smoothSolver:  Solving for Uy, Initial residual = 0.231086, Final residual = 0.0190108, No Iterations 1
smoothSolver:  Solving for Uz, Initial residual = 0.41648, Final residual = 0.0353662, No Iterations 1
GAMG:  Solving for p, Initial residual = 0.206912, Final residual = 0.00920926, No Iterations 2
time step continuity errors : sum local = 0.0067918, global = -0.000762178, cumulative = 0.0061389
smoothSolver:  Solving for epsilon, Initial residual = 0.751301, Final residual = 0.0102484, No Iterations 1
bounding epsilon, min: -10.3262 max: 14.855 average: 0.0292686
smoothSolver:  Solving for k, Initial residual = 0.316935, Final residual = 0.0216148, No Iterations 1
bounding k, min: -0.477452 max: 3.25301 average: 0.0239643
ExecutionTime = 12.26 s  ClockTime = 16 s

Time = 6

smoothSolver:  Solving for Ux, Initial residual = 0.0886507, Final residual = 0.00265419, No Iterations 2
smoothSolver:  Solving for Uy, Initial residual = 0.189732, Final residual = 0.0125217, No Iterations 1
smoothSolver:  Solving for Uz, Initial residual = 0.343527, Final residual = 0.0298056, No Iterations 1
GAMG:  Solving for p, Initial residual = 0.163211, Final residual = 0.00634105, No Iterations 2
time step continuity errors : sum local = 0.00535295, global = -0.000762027, cumulative = 0.00537687
smoothSolver:  Solving for epsilon, Initial residual = 0.733753, Final residual = 0.0131625, No Iterations 1
bounding epsilon, min: -14.9145 max: 14.855 average: 0.0335967
smoothSolver:  Solving for k, Initial residual = 0.295415, Final residual = 0.0172504, No Iterations 1
bounding k, min: -0.44374 max: 3.23078 average: 0.0265198
ExecutionTime = 14.26 s  ClockTime = 18 s

Time = 7

smoothSolver:  Solving for Ux, Initial residual = 0.0820145, Final residual = 0.00247249, No Iterations 2
smoothSolver:  Solving for Uy, Initial residual = 0.177231, Final residual = 0.0110313, No Iterations 1
smoothSolver:  Solving for Uz, Initial residual = 0.277015, Final residual = 0.02536, No Iterations 1
GAMG:  Solving for p, Initial residual = 0.145914, Final residual = 0.00411287, No Iterations 2
time step continuity errors : sum local = 0.0036844, global = 0.00124316, cumulative = 0.00662003
smoothSolver:  Solving for epsilon, Initial residual = 0.713298, Final residual = 0.0162557, No Iterations 1
bounding epsilon, min: -21.8083 max: 14.855 average: 0.0405797
smoothSolver:  Solving for k, Initial residual = 0.273117, Final residual = 0.0179671, No Iterations 1
bounding k, min: -0.399256 max: 4.3615 average: 0.0301247
ExecutionTime = 16.25 s  ClockTime = 21 s

Time = 8

smoothSolver:  Solving for Ux, Initial residual = 0.0743138, Final residual = 0.00214377, No Iterations 2
smoothSolver:  Solving for Uy, Initial residual = 0.157138, Final residual = 0.0105275, No Iterations 1
smoothSolver:  Solving for Uz, Initial residual = 0.226988, Final residual = 0.0223063, No Iterations 1
GAMG:  Solving for p, Initial residual = 0.137861, Final residual = 0.00214185, No Iterations 2
time step continuity errors : sum local = 0.00195891, global = -0.000740992, cumulative = 0.00587904
smoothSolver:  Solving for epsilon, Initial residual = 0.67635, Final residual = 0.012647, No Iterations 1
bounding epsilon, min: -16.3524 max: 14.855 average: 0.0505794
smoothSolver:  Solving for k, Initial residual = 0.251091, Final residual = 0.0214691, No Iterations 1
bounding k, min: -0.485852 max: 5.45724 average: 0.0357611
ExecutionTime = 18.23 s  ClockTime = 23 s

Time = 9

smoothSolver:  Solving for Ux, Initial residual = 0.070325, Final residual = 0.00174622, No Iterations 2
smoothSolver:  Solving for Uy, Initial residual = 0.138597, Final residual = 0.00953912, No Iterations 1
smoothSolver:  Solving for Uz, Initial residual = 0.207457, Final residual = 0.0200231, No Iterations 1
