/*---------------------------------------------------------------------------*\
| =========                 |                                                 |
| \\      /  F ield         | OpenFOAM: The Open Source CFD Toolbox           |
|  \\    /   O peration     | Version:  v2012                                 |
|   \\  /    A nd           | Website:  www.openfoam.com                      |
|    \\/     M anipulation  |                                                 |
\*---------------------------------------------------------------------------*/
Build  : _7bdb509494-20201222 OPENFOAM=2012
Arch   : "LSB;label=32;scalar=64"
Exec   : /home/dockeruser/OpenFOAM/OpenFOAM-v2012/platforms/linux64GccDPInt32Opt/bin/buoyantBoussinesqSimpleFoam
Date   : Oct 13 2022
Time   : 18:17:28
Host   : fecc01be2259
PID    : 1003
I/O    : uncollated
Case   : /foamdata/of2012_projects/hotRoom9B_sbSLip
nProcs : 1
trapFpe: Floating point exception trapping enabled (FOAM_SIGFPE).
fileModificationChecking : Monitoring run-time modified files using timeStampMaster (fileModificationSkew 5, maxFileModificationPolls 20)
allowSystemOperations : Allowing user-supplied system call operations

// * * * * * * * * * * * * * * * * * * * * * * * * * * * * * * * * * * * * * //
Create time

Create mesh for time = 150


SIMPLE: convergence criteria
    field p_rgh	 tolerance 0.01
    field U	 tolerance 0.0001
    field T	 tolerance 0.01
    field "(k|epsilon|omega)"	 tolerance 0.001

Reading thermophysical properties

Reading field T

Reading field p_rgh

Reading field U

Reading/calculating face flux field phi

Selecting incompressible transport model Newtonian
Creating turbulence model

Selecting turbulence model type RAS
Selecting RAS turbulence model RNGkEpsilon
RAS
{
    RASModel        RNGkEpsilon;
    kEpsilonCoeffs
    {
        sigmaEps        1.1;
    }
    turbulence      on;
    printCoeffs     on;
    Cmu             0.0845;
    C1              1.42;
    C2              1.68;
    C3              0;
    sigmak          0.71942;
    sigmaEps        0.71942;
    eta0            4.38;
    beta            0.012;
}

Reading field alphat


Reading g

Reading hRef
Calculating field g.h

No MRF models present

Radiation model not active: radiationProperties not found
Selecting radiationModel none
No finite volume options present

Starting time loop

Reading set description:
    x_0m
    x_10m
    x_20m

--> FOAM Warning : 
Unknown function type swakExpression

Valid function types :

84
(
AMIWeights
BilgerMixtureFraction
CourantNo
Curle
DESModelRegions
LambVector
Lambda2
MachNo
ObukhovLength
PecletNo
Q
STDMD
XiReactionRate
add
blendingFactor
columnAverage
components
continuityError
ddt
ddt2
derivedFields
div
enstrophy
externalCoupled
extractEulerianParticles
fieldAverage
fieldCoordinateSystemTransform
fieldExtents
fieldMinMax
fieldValueDelta
flowType
flux
fluxSummary
grad
heatTransferCoeff
histogram
interfaceHeight
limitFields
log
mag
magSqr
mapFields
momentum
momentumError
multiply
nearWallFields
particleDistribution
patchProbes
pow
pressure
probes
processorField
proudmanAcousticPower
psiReactionThermoMoleFractions
psiReactionsSensitivityAnalysis
psiSpecieReactionRates
randomise
readFields
reference
regionSizeDistribution
rhoReactionThermoMoleFractions
rhoReactionsSensitivityAnalysis
rhoSpecieReactionRates
setFlow
sets
stabilityBlendingFactor
streamFunction
streamLine
subtract
surfaceDistance
surfaceFieldValue
surfaceInterpolate
surfaces
turbulenceFields
valueAverage
volFieldValue
vorticity
wallBoundedStreamLine
wallHeatFlux
wallShearStress
writeCellCentres
writeCellVolumes
yPlus
zeroGradient
)



    From static Foam::autoPtr<Foam::functionObject> Foam::functionObject::New(const Foam::word&, const Foam::Time&, const Foam::dictionary&)
    in file db/functionObjects/functionObject/functionObject.C at line 122.
--> loading function object 'velocity'

--> FOAM Warning : 
Unknown function type swakExpression

Valid function types :

84
(
AMIWeights
BilgerMixtureFraction
CourantNo
Curle
DESModelRegions
LambVector
Lambda2
MachNo
ObukhovLength
PecletNo
Q
STDMD
XiReactionRate
add
blendingFactor
columnAverage
components
continuityError
ddt
ddt2
derivedFields
div
enstrophy
externalCoupled
extractEulerianParticles
fieldAverage
fieldCoordinateSystemTransform
fieldExtents
fieldMinMax
fieldValueDelta
flowType
flux
fluxSummary
grad
heatTransferCoeff
histogram
interfaceHeight
limitFields
log
mag
magSqr
mapFields
momentum
momentumError
multiply
nearWallFields
particleDistribution
patchProbes
pow
pressure
probes
processorField
proudmanAcousticPower
psiReactionThermoMoleFractions
psiReactionsSensitivityAnalysis
psiSpecieReactionRates
randomise
readFields
reference
regionSizeDistribution
rhoReactionThermoMoleFractions
rhoReactionsSensitivityAnalysis
rhoSpecieReactionRates
setFlow
sets
stabilityBlendingFactor
streamFunction
streamLine
subtract
surfaceDistance
surfaceFieldValue
surfaceInterpolate
surfaces
turbulenceFields
valueAverage
volFieldValue
vorticity
wallBoundedStreamLine
wallHeatFlux
wallShearStress
writeCellCentres
writeCellVolumes
yPlus
zeroGradient
)



    From static Foam::autoPtr<Foam::functionObject> Foam::functionObject::New(const Foam::word&, const Foam::Time&, const Foam::dictionary&)
    in file db/functionObjects/functionObject/functionObject.C at line 122.
--> loading function object 'pressure'

--> FOAM Warning : 
Unknown function type swakExpression

Valid function types :

84
(
AMIWeights
BilgerMixtureFraction
CourantNo
Curle
DESModelRegions
LambVector
Lambda2
MachNo
ObukhovLength
PecletNo
Q
STDMD
XiReactionRate
add
blendingFactor
columnAverage
components
continuityError
ddt
ddt2
derivedFields
div
enstrophy
externalCoupled
extractEulerianParticles
fieldAverage
fieldCoordinateSystemTransform
fieldExtents
fieldMinMax
fieldValueDelta
flowType
flux
fluxSummary
grad
heatTransferCoeff
histogram
interfaceHeight
limitFields
log
mag
magSqr
mapFields
momentum
momentumError
multiply
nearWallFields
particleDistribution
patchProbes
pow
pressure
probes
processorField
proudmanAcousticPower
psiReactionThermoMoleFractions
psiReactionsSensitivityAnalysis
psiSpecieReactionRates
randomise
readFields
reference
regionSizeDistribution
rhoReactionThermoMoleFractions
rhoReactionsSensitivityAnalysis
rhoSpecieReactionRates
setFlow
sets
stabilityBlendingFactor
streamFunction
streamLine
subtract
surfaceDistance
surfaceFieldValue
surfaceInterpolate
surfaces
turbulenceFields
valueAverage
volFieldValue
vorticity
wallBoundedStreamLine
wallHeatFlux
wallShearStress
writeCellCentres
writeCellVolumes
yPlus
zeroGradient
)



    From static Foam::autoPtr<Foam::functionObject> Foam::functionObject::New(const Foam::word&, const Foam::Time&, const Foam::dictionary&)
    in file db/functionObjects/functionObject/functionObject.C at line 122.
--> loading function object 'nut'

--> FOAM Warning : 
Unknown function type swakExpression

Valid function types :

84
(
AMIWeights
BilgerMixtureFraction
CourantNo
Curle
DESModelRegions
LambVector
Lambda2
MachNo
ObukhovLength
PecletNo
Q
STDMD
XiReactionRate
add
blendingFactor
columnAverage
components
continuityError
ddt
ddt2
derivedFields
div
enstrophy
externalCoupled
extractEulerianParticles
fieldAverage
fieldCoordinateSystemTransform
fieldExtents
fieldMinMax
fieldValueDelta
flowType
flux
fluxSummary
grad
heatTransferCoeff
histogram
interfaceHeight
limitFields
log
mag
magSqr
mapFields
momentum
momentumError
multiply
nearWallFields
particleDistribution
patchProbes
pow
pressure
probes
processorField
proudmanAcousticPower
psiReactionThermoMoleFractions
psiReactionsSensitivityAnalysis
psiSpecieReactionRates
randomise
readFields
reference
regionSizeDistribution
rhoReactionThermoMoleFractions
rhoReactionsSensitivityAnalysis
rhoSpecieReactionRates
setFlow
sets
stabilityBlendingFactor
streamFunction
streamLine
subtract
surfaceDistance
surfaceFieldValue
surfaceInterpolate
surfaces
turbulenceFields
valueAverage
volFieldValue
vorticity
wallBoundedStreamLine
wallHeatFlux
wallShearStress
writeCellCentres
writeCellVolumes
yPlus
zeroGradient
)



    From static Foam::autoPtr<Foam::functionObject> Foam::functionObject::New(const Foam::word&, const Foam::Time&, const Foam::dictionary&)
    in file db/functionObjects/functionObject/functionObject.C at line 122.
--> loading function object 'tke'

Time = 150.1

DILUPBiCGStab:  Solving for Ux, Initial residual = 0.000147292, Final residual = 2.10063e-07, No Iterations 1
DILUPBiCGStab:  Solving for Uy, Initial residual = 0.00100427, Final residual = 1.00327e-06, No Iterations 1
DILUPBiCGStab:  Solving for Uz, Initial residual = 0.00136426, Final residual = 1.64763e-06, No Iterations 1
DILUPBiCGStab:  Solving for T, Initial residual = 0.00206151, Final residual = 2.61525e-05, No Iterations 1
DICPCG:  Solving for p_rgh, Initial residual = 0.00942579, Final residual = 9.10629e-05, No Iterations 45
time step continuity errors : sum local = 9.42025e-09, global = 8.62001e-12, cumulative = 3.80342e-07
DILUPBiCGStab:  Solving for epsilon, Initial residual = 1.06881e-05, Final residual = 3.70852e-07, No Iterations 1
DILUPBiCGStab:  Solving for k, Initial residual = 0.000217721, Final residual = 2.73277e-06, No Iterations 1
ExecutionTime = 33.01 s  ClockTime = 34 s

Time = 150.2

DILUPBiCGStab:  Solving for Ux, Initial residual = 0.000147152, Final residual = 2.09452e-07, No Iterations 1
DILUPBiCGStab:  Solving for Uy, Initial residual = 0.00100406, Final residual = 1.00168e-06, No Iterations 1
DILUPBiCGStab:  Solving for Uz, Initial residual = 0.00141439, Final residual = 2.06099e-06, No Iterations 1
DILUPBiCGStab:  Solving for T, Initial residual = 0.00161715, Final residual = 1.36187e-05, No Iterations 1
DICPCG:  Solving for p_rgh, Initial residual = 0.00315717, Final residual = 2.48848e-05, No Iterations 125
time step continuity errors : sum local = 2.57207e-09, global = -1.11618e-11, cumulative = 3.8033e-07
DILUPBiCGStab:  Solving for epsilon, Initial residual = 1.06294e-05, Final residual = 3.67863e-07, No Iterations 1
DILUPBiCGStab:  Solving for k, Initial residual = 0.000217182, Final residual = 2.61847e-06, No Iterations 1
ExecutionTime = 47.7 s  ClockTime = 48 s

Time = 150.3

DILUPBiCGStab:  Solving for Ux, Initial residual = 0.000147002, Final residual = 2.08964e-07, No Iterations 1
DILUPBiCGStab:  Solving for Uy, Initial residual = 0.00100372, Final residual = 9.99842e-07, No Iterations 1
DILUPBiCGStab:  Solving for Uz, Initial residual = 0.00138154, Final residual = 1.81936e-06, No Iterations 1
DILUPBiCGStab:  Solving for T, Initial residual = 0.00151965, Final residual = 7.46298e-06, No Iterations 1
DICPCG:  Solving for p_rgh, Initial residual = 0.00277765, Final residual = 2.75333e-05, No Iterations 72
time step continuity errors : sum local = 2.84146e-09, global = 2.3529e-10, cumulative = 3.80566e-07
DILUPBiCGStab:  Solving for epsilon, Initial residual = 1.06242e-05, Final residual = 3.67908e-07, No Iterations 1
DILUPBiCGStab:  Solving for k, Initial residual = 0.000217294, Final residual = 2.60797e-06, No Iterations 1
ExecutionTime = 58.39 s  ClockTime = 59 s

Time = 150.4

DILUPBiCGStab:  Solving for Ux, Initial residual = 0.000146873, Final residual = 2.08612e-07, No Iterations 1
DILUPBiCGStab:  Solving for Uy, Initial residual = 0.00100345, Final residual = 9.99139e-07, No Iterations 1
DILUPBiCGStab:  Solving for Uz, Initial residual = 0.0013597, Final residual = 1.58043e-06, No Iterations 1
DILUPBiCGStab:  Solving for T, Initial residual = 0.00149649, Final residual = 5.44138e-06, No Iterations 1
DICPCG:  Solving for p_rgh, Initial residual = 0.00167717, Final residual = 1.63575e-05, No Iterations 125
time step continuity errors : sum local = 1.68743e-09, global = 4.09465e-11, cumulative = 3.80607e-07
DILUPBiCGStab:  Solving for epsilon, Initial residual = 1.06212e-05, Final residual = 3.67683e-07, No Iterations 1
DILUPBiCGStab:  Solving for k, Initial residual = 0.00021746, Final residual = 2.60661e-06, No Iterations 1
ExecutionTime = 72.61 s  ClockTime = 73 s

Time = 150.5

DILUPBiCGStab:  Solving for Ux, Initial residual = 0.000146752, Final residual = 2.08353e-07, No Iterations 1
DILUPBiCGStab:  Solving for Uy, Initial residual = 0.00100316, Final residual = 9.98612e-07, No Iterations 1
DILUPBiCGStab:  Solving for Uz, Initial residual = 0.00135806, Final residual = 1.52762e-06, No Iterations 1
DILUPBiCGStab:  Solving for T, Initial residual = 0.00148851, Final residual = 4.84281e-06, No Iterations 1
DICPCG:  Solving for p_rgh, Initial residual = 0.000999519, Final residual = 8.58625e-06, No Iterations 127
time step continuity errors : sum local = 8.85111e-10, global = 5.15921e-12, cumulative = 3.80612e-07
DILUPBiCGStab:  Solving for epsilon, Initial residual = 1.06189e-05, Final residual = 3.67641e-07, No Iterations 1
DILUPBiCGStab:  Solving for k, Initial residual = 0.000217632, Final residual = 2.60647e-06, No Iterations 1
ExecutionTime = 87.33 s  ClockTime = 88 s

Time = 150.6

DILUPBiCGStab:  Solving for Ux, Initial residual = 0.000146635, Final residual = 2.08126e-07, No Iterations 1
DILUPBiCGStab:  Solving for Uy, Initial residual = 0.00100287, Final residual = 9.98049e-07, No Iterations 1
DILUPBiCGStab:  Solving for Uz, Initial residual = 0.00135511, Final residual = 1.50222e-06, No Iterations 1
DILUPBiCGStab:  Solving for T, Initial residual = 0.00148476, Final residual = 4.6202e-06, No Iterations 1
DICPCG:  Solving for p_rgh, Initial residual = 0.000661032, Final residual = 5.94253e-06, No Iterations 135
time step continuity errors : sum local = 6.12349e-10, global = 1.12149e-11, cumulative = 3.80623e-07
DILUPBiCGStab:  Solving for epsilon, Initial residual = 1.06168e-05, Final residual = 3.67536e-07, No Iterations 1
DILUPBiCGStab:  Solving for k, Initial residual = 0.000217805, Final residual = 2.60663e-06, No Iterations 1
ExecutionTime = 101.8 s  ClockTime = 103 s

Time = 150.7

DILUPBiCGStab:  Solving for Ux, Initial residual = 0.00014652, Final residual = 2.0792e-07, No Iterations 1
DILUPBiCGStab:  Solving for Uy, Initial residual = 0.00100261, Final residual = 9.97599e-07, No Iterations 1
DILUPBiCGStab:  Solving for Uz, Initial residual = 0.00135347, Final residual = 1.48175e-06, No Iterations 1
DILUPBiCGStab:  Solving for T, Initial residual = 0.00148253, Final residual = 4.51309e-06, No Iterations 1
DICPCG:  Solving for p_rgh, Initial residual = 0.000505512, Final residual = 5.04635e-06, No Iterations 136
time step continuity errors : sum local = 5.19815e-10, global = 6.28875e-12, cumulative = 3.80629e-07
DILUPBiCGStab:  Solving for epsilon, Initial residual = 1.06148e-05, Final residual = 3.67394e-07, No Iterations 1
DILUPBiCGStab:  Solving for k, Initial residual = 0.000217977, Final residual = 2.60692e-06, No Iterations 1
ExecutionTime = 116.4 s  ClockTime = 117 s

Time = 150.8

DILUPBiCGStab:  Solving for Ux, Initial residual = 0.000146406, Final residual = 2.07726e-07, No Iterations 1
DILUPBiCGStab:  Solving for Uy, Initial residual = 0.00100235, Final residual = 9.97188e-07, No Iterations 1
DILUPBiCGStab:  Solving for Uz, Initial residual = 0.00135289, Final residual = 1.47098e-06, No Iterations 1
DILUPBiCGStab:  Solving for T, Initial residual = 0.00148088, Final residual = 4.44984e-06, No Iterations 1
DICPCG:  Solving for p_rgh, Initial residual = 0.000455581, Final residual = 4.33277e-06, No Iterations 136
time step continuity errors : sum local = 4.46116e-10, global = 6.79021e-12, cumulative = 3.80636e-07
DILUPBiCGStab:  Solving for epsilon, Initial residual = 1.06129e-05, Final residual = 3.67284e-07, No Iterations 1
DILUPBiCGStab:  Solving for k, Initial residual = 0.00021815, Final residual = 2.60724e-06, No Iterations 1
ExecutionTime = 130.99 s  ClockTime = 132 s

Time = 150.9

DILUPBiCGStab:  Solving for Ux, Initial residual = 0.000146291, Final residual = 2.07537e-07, No Iterations 1
DILUPBiCGStab:  Solving for Uy, Initial residual = 0.00100208, Final residual = 9.96788e-07, No Iterations 1
DILUPBiCGStab:  Solving for Uz, Initial residual = 0.00135265, Final residual = 1.46595e-06, No Iterations 1
DILUPBiCGStab:  Solving for T, Initial residual = 0.00147948, Final residual = 4.40734e-06, No Iterations 1
DICPCG:  Solving for p_rgh, Initial residual = 0.000437575, Final residual = 4.17063e-06, No Iterations 136
time step continuity errors : sum local = 4.29222e-10, global = 6.98071e-12, cumulative = 3.80643e-07
DILUPBiCGStab:  Solving for epsilon, Initial residual = 1.06111e-05, Final residual = 3.67201e-07, No Iterations 1
DILUPBiCGStab:  Solving for k, Initial residual = 0.000218321, Final residual = 2.60758e-06, No Iterations 1
ExecutionTime = 145.81 s  ClockTime = 147 s

Time = 151

DILUPBiCGStab:  Solving for Ux, Initial residual = 0.000146177, Final residual = 2.07351e-07, No Iterations 1
DILUPBiCGStab:  Solving for Uy, Initial residual = 0.00100181, Final residual = 9.96387e-07, No Iterations 1
DILUPBiCGStab:  Solving for Uz, Initial residual = 0.00135254, Final residual = 1.46495e-06, No Iterations 1
DILUPBiCGStab:  Solving for T, Initial residual = 0.0014782, Final residual = 4.37587e-06, No Iterations 1
DICPCG:  Solving for p_rgh, Initial residual = 0.000427806, Final residual = 3.98996e-06, No Iterations 137
time step continuity errors : sum local = 4.10446e-10, global = 4.21547e-12, cumulative = 3.80647e-07
DILUPBiCGStab:  Solving for epsilon, Initial residual = 1.06094e-05, Final residual = 3.67123e-07, No Iterations 1
DILUPBiCGStab:  Solving for k, Initial residual = 0.000218492, Final residual = 2.60793e-06, No Iterations 1
ExecutionTime = 160.4 s  ClockTime = 161 s

Time = 151.1

DILUPBiCGStab:  Solving for Ux, Initial residual = 0.000146063, Final residual = 2.07167e-07, No Iterations 1
DILUPBiCGStab:  Solving for Uy, Initial residual = 0.00100154, Final residual = 9.95989e-07, No Iterations 1
DILUPBiCGStab:  Solving for Uz, Initial residual = 0.00135237, Final residual = 1.46265e-06, No Iterations 1
DILUPBiCGStab:  Solving for T, Initial residual = 0.00147702, Final residual = 4.35117e-06, No Iterations 1
DICPCG:  Solving for p_rgh, Initial residual = 0.000422076, Final residual = 4.18816e-06, No Iterations 137
time step continuity errors : sum local = 4.30649e-10, global = 3.6089e-12, cumulative = 3.80651e-07
DILUPBiCGStab:  Solving for epsilon, Initial residual = 1.06077e-05, Final residual = 3.6704e-07, No Iterations 1
DILUPBiCGStab:  Solving for k, Initial residual = 0.000218662, Final residual = 2.60827e-06, No Iterations 1
ExecutionTime = 175.19 s  ClockTime = 176 s

Time = 151.2

DILUPBiCGStab:  Solving for Ux, Initial residual = 0.00014595, Final residual = 2.06984e-07, No Iterations 1
DILUPBiCGStab:  Solving for Uy, Initial residual = 0.00100128, Final residual = 9.95594e-07, No Iterations 1
DILUPBiCGStab:  Solving for Uz, Initial residual = 0.00135231, Final residual = 1.46149e-06, No Iterations 1
DILUPBiCGStab:  Solving for T, Initial residual = 0.0014759, Final residual = 4.33121e-06, No Iterations 1
DICPCG:  Solving for p_rgh, Initial residual = 0.000417583, Final residual = 3.70378e-06, No Iterations 138
time step continuity errors : sum local = 3.80678e-10, global = 1.88045e-12, cumulative = 3.80653e-07
DILUPBiCGStab:  Solving for epsilon, Initial residual = 1.0606e-05, Final residual = 3.66957e-07, No Iterations 1
DILUPBiCGStab:  Solving for k, Initial residual = 0.000218832, Final residual = 2.60861e-06, No Iterations 1
ExecutionTime = 189.87 s  ClockTime = 191 s

Time = 151.3

DILUPBiCGStab:  Solving for Ux, Initial residual = 0.000145836, Final residual = 2.06802e-07, No Iterations 1
DILUPBiCGStab:  Solving for Uy, Initial residual = 0.00100101, Final residual = 9.95203e-07, No Iterations 1
DILUPBiCGStab:  Solving for Uz, Initial residual = 0.00135225, Final residual = 1.45975e-06, No Iterations 1
DILUPBiCGStab:  Solving for T, Initial residual = 0.0014748, Final residual = 4.31471e-06, No Iterations 1
DICPCG:  Solving for p_rgh, Initial residual = 0.000414508, Final residual = 3.68005e-06, No Iterations 138
time step continuity errors : sum local = 3.78074e-10, global = 1.81037e-12, cumulative = 3.80655e-07
DILUPBiCGStab:  Solving for epsilon, Initial residual = 1.06043e-05, Final residual = 3.66875e-07, No Iterations 1
DILUPBiCGStab:  Solving for k, Initial residual = 0.000219001, Final residual = 2.60894e-06, No Iterations 1
ExecutionTime = 204.99 s  ClockTime = 206 s

Time = 151.4

DILUPBiCGStab:  Solving for Ux, Initial residual = 0.000145722, Final residual = 2.06621e-07, No Iterations 1
DILUPBiCGStab:  Solving for Uy, Initial residual = 0.00100075, Final residual = 9.94811e-07, No Iterations 1
DILUPBiCGStab:  Solving for Uz, Initial residual = 0.00135222, Final residual = 1.4596e-06, No Iterations 1
DILUPBiCGStab:  Solving for T, Initial residual = 0.00147371, Final residual = 4.30072e-06, No Iterations 1
DICPCG:  Solving for p_rgh, Initial residual = 0.000416568, Final residual = 3.71571e-06, No Iterations 138
time step continuity errors : sum local = 3.81569e-10, global = 1.80268e-12, cumulative = 3.80656e-07
DILUPBiCGStab:  Solving for epsilon, Initial residual = 1.06027e-05, Final residual = 3.66794e-07, No Iterations 1
DILUPBiCGStab:  Solving for k, Initial residual = 0.000219169, Final residual = 2.60927e-06, No Iterations 1
ExecutionTime = 219.89 s  ClockTime = 221 s

Time = 151.5

DILUPBiCGStab:  Solving for Ux, Initial residual = 0.000145609, Final residual = 2.0644e-07, No Iterations 1
DILUPBiCGStab:  Solving for Uy, Initial residual = 0.00100048, Final residual = 9.94416e-07, No Iterations 1
DILUPBiCGStab:  Solving for Uz, Initial residual = 0.00135215, Final residual = 1.45866e-06, No Iterations 1
DILUPBiCGStab:  Solving for T, Initial residual = 0.00147262, Final residual = 4.28852e-06, No Iterations 1
DICPCG:  Solving for p_rgh, Initial residual = 0.000417503, Final residual = 3.75943e-06, No Iterations 138
time step continuity errors : sum local = 3.8589e-10, global = 1.74221e-12, cumulative = 3.80658e-07
DILUPBiCGStab:  Solving for epsilon, Initial residual = 1.06011e-05, Final residual = 3.66713e-07, No Iterations 1
DILUPBiCGStab:  Solving for k, Initial residual = 0.000219336, Final residual = 2.60959e-06, No Iterations 1
ExecutionTime = 235.12 s  ClockTime = 236 s

Time = 151.6

DILUPBiCGStab:  Solving for Ux, Initial residual = 0.000145496, Final residual = 2.0626e-07, No Iterations 1
DILUPBiCGStab:  Solving for Uy, Initial residual = 0.00100021, Final residual = 9.94019e-07, No Iterations 1
DILUPBiCGStab:  Solving for Uz, Initial residual = 0.00135205, Final residual = 1.4565e-06, No Iterations 1
DILUPBiCGStab:  Solving for T, Initial residual = 0.00147154, Final residual = 4.27775e-06, No Iterations 1
DICPCG:  Solving for p_rgh, Initial residual = 0.000415042, Final residual = 3.80397e-06, No Iterations 138
time step continuity errors : sum local = 3.9029e-10, global = 1.66201e-12, cumulative = 3.8066e-07
DILUPBiCGStab:  Solving for epsilon, Initial residual = 1.05995e-05, Final residual = 3.66633e-07, No Iterations 1
DILUPBiCGStab:  Solving for k, Initial residual = 0.000219502, Final residual = 2.60989e-06, No Iterations 1
ExecutionTime = 250 s  ClockTime = 251 s

Time = 151.7

DILUPBiCGStab:  Solving for Ux, Initial residual = 0.000145383, Final residual = 2.0608e-07, No Iterations 1
DILUPBiCGStab:  Solving for Uy, Initial residual = 0.000999946, Final residual = 9.93622e-07, No Iterations 1
DILUPBiCGStab:  Solving for Uz, Initial residual = 0.00135206, Final residual = 1.45644e-06, No Iterations 1
DILUPBiCGStab:  Solving for T, Initial residual = 0.00147049, Final residual = 4.26817e-06, No Iterations 1
DICPCG:  Solving for p_rgh, Initial residual = 0.000416761, Final residual = 3.81571e-06, No Iterations 138
time step continuity errors : sum local = 3.91321e-10, global = 1.57257e-12, cumulative = 3.80661e-07
DILUPBiCGStab:  Solving for epsilon, Initial residual = 1.05979e-05, Final residual = 3.66554e-07, No Iterations 1
DILUPBiCGStab:  Solving for k, Initial residual = 0.000219668, Final residual = 2.61019e-06, No Iterations 1
ExecutionTime = 264.83 s  ClockTime = 266 s

Time = 151.8

DILUPBiCGStab:  Solving for Ux, Initial residual = 0.00014527, Final residual = 2.05901e-07, No Iterations 1
DILUPBiCGStab:  Solving for Uy, Initial residual = 0.000999682, Final residual = 9.93225e-07, No Iterations 1
DILUPBiCGStab:  Solving for Uz, Initial residual = 0.00135196, Final residual = 1.45431e-06, No Iterations 1
DILUPBiCGStab:  Solving for T, Initial residual = 0.00146944, Final residual = 4.25954e-06, No Iterations 1
DICPCG:  Solving for p_rgh, Initial residual = 0.000416428, Final residual = 3.8595e-06, No Iterations 138
time step continuity errors : sum local = 3.95637e-10, global = 1.54723e-12, cumulative = 3.80663e-07
DILUPBiCGStab:  Solving for epsilon, Initial residual = 1.05963e-05, Final residual = 3.66474e-07, No Iterations 1
DILUPBiCGStab:  Solving for k, Initial residual = 0.000219833, Final residual = 2.61049e-06, No Iterations 1
ExecutionTime = 280.09 s  ClockTime = 281 s

Time = 151.9

DILUPBiCGStab:  Solving for Ux, Initial residual = 0.000145157, Final residual = 2.05721e-07, No Iterations 1
DILUPBiCGStab:  Solving for Uy, Initial residual = 0.000999418, Final residual = 9.92823e-07, No Iterations 1
DILUPBiCGStab:  Solving for Uz, Initial residual = 0.00135191, Final residual = 1.45295e-06, No Iterations 1
DILUPBiCGStab:  Solving for T, Initial residual = 0.00146838, Final residual = 4.25166e-06, No Iterations 1
DICPCG:  Solving for p_rgh, Initial residual = 0.000416559, Final residual = 3.89798e-06, No Iterations 138
time step continuity errors : sum local = 3.99405e-10, global = 1.51517e-12, cumulative = 3.80664e-07
DILUPBiCGStab:  Solving for epsilon, Initial residual = 1.05948e-05, Final residual = 3.66395e-07, No Iterations 1
DILUPBiCGStab:  Solving for k, Initial residual = 0.000219998, Final residual = 2.61077e-06, No Iterations 1
ExecutionTime = 294.93 s  ClockTime = 296 s

Time = 152

DILUPBiCGStab:  Solving for Ux, Initial residual = 0.000145044, Final residual = 2.05542e-07, No Iterations 1
DILUPBiCGStab:  Solving for Uy, Initial residual = 0.000999152, Final residual = 9.92414e-07, No Iterations 1
DILUPBiCGStab:  Solving for Uz, Initial residual = 0.00135184, Final residual = 1.45225e-06, No Iterations 1
DILUPBiCGStab:  Solving for T, Initial residual = 0.00146733, Final residual = 4.24447e-06, No Iterations 1
DICPCG:  Solving for p_rgh, Initial residual = 0.00041753, Final residual = 3.90704e-06, No Iterations 138
time step continuity errors : sum local = 4.00156e-10, global = 1.43052e-12, cumulative = 3.80666e-07
DILUPBiCGStab:  Solving for epsilon, Initial residual = 1.05933e-05, Final residual = 3.66317e-07, No Iterations 1
DILUPBiCGStab:  Solving for k, Initial residual = 0.000220161, Final residual = 2.61104e-06, No Iterations 1
ExecutionTime = 309.6 s  ClockTime = 311 s

Time = 152.1

DILUPBiCGStab:  Solving for Ux, Initial residual = 0.000144931, Final residual = 2.05363e-07, No Iterations 1
DILUPBiCGStab:  Solving for Uy, Initial residual = 0.000998887, Final residual = 9.91999e-07, No Iterations 1
DILUPBiCGStab:  Solving for Uz, Initial residual = 0.00135181, Final residual = 1.45117e-06, No Iterations 1
DILUPBiCGStab:  Solving for T, Initial residual = 0.00146627, Final residual = 4.23793e-06, No Iterations 1
DICPCG:  Solving for p_rgh, Initial residual = 0.000415354, Final residual = 3.92333e-06, No Iterations 138
time step continuity errors : sum local = 4.01648e-10, global = 1.42814e-12, cumulative = 3.80667e-07
DILUPBiCGStab:  Solving for epsilon, Initial residual = 1.05918e-05, Final residual = 3.66238e-07, No Iterations 1
DILUPBiCGStab:  Solving for k, Initial residual = 0.000220324, Final residual = 2.6113e-06, No Iterations 1
ExecutionTime = 324.27 s  ClockTime = 325 s

Time = 152.2

DILUPBiCGStab:  Solving for Ux, Initial residual = 0.000144818, Final residual = 2.05185e-07, No Iterations 1
DILUPBiCGStab:  Solving for Uy, Initial residual = 0.000998624, Final residual = 9.91575e-07, No Iterations 1
DILUPBiCGStab:  Solving for Uz, Initial residual = 0.0013517, Final residual = 1.44912e-06, No Iterations 1
DILUPBiCGStab:  Solving for T, Initial residual = 0.00146523, Final residual = 4.23186e-06, No Iterations 1
DICPCG:  Solving for p_rgh, Initial residual = 0.000414181, Final residual = 3.94872e-06, No Iterations 138
time step continuity errors : sum local = 4.0407e-10, global = 1.39197e-12, cumulative = 3.80669e-07
DILUPBiCGStab:  Solving for epsilon, Initial residual = 1.05903e-05, Final residual = 3.66161e-07, No Iterations 1
DILUPBiCGStab:  Solving for k, Initial residual = 0.000220487, Final residual = 2.61156e-06, No Iterations 1
ExecutionTime = 338.98 s  ClockTime = 340 s

Time = 152.3

DILUPBiCGStab:  Solving for Ux, Initial residual = 0.000144705, Final residual = 2.05007e-07, No Iterations 1
DILUPBiCGStab:  Solving for Uy, Initial residual = 0.000998359, Final residual = 9.91149e-07, No Iterations 1
DILUPBiCGStab:  Solving for Uz, Initial residual = 0.00135162, Final residual = 1.44755e-06, No Iterations 1
DILUPBiCGStab:  Solving for T, Initial residual = 0.00146417, Final residual = 4.22621e-06, No Iterations 1
DICPCG:  Solving for p_rgh, Initial residual = 0.000415343, Final residual = 3.98058e-06, No Iterations 138
time step continuity errors : sum local = 4.07152e-10, global = 1.33084e-12, cumulative = 3.8067e-07
DILUPBiCGStab:  Solving for epsilon, Initial residual = 1.05888e-05, Final residual = 3.66083e-07, No Iterations 1
DILUPBiCGStab:  Solving for k, Initial residual = 0.000220648, Final residual = 2.6118e-06, No Iterations 1
ExecutionTime = 354.16 s  ClockTime = 355 s

Time = 152.4

DILUPBiCGStab:  Solving for Ux, Initial residual = 0.000144593, Final residual = 2.04829e-07, No Iterations 1
DILUPBiCGStab:  Solving for Uy, Initial residual = 0.000998096, Final residual = 9.90721e-07, No Iterations 1
DILUPBiCGStab:  Solving for Uz, Initial residual = 0.00135155, Final residual = 1.44723e-06, No Iterations 1
DILUPBiCGStab:  Solving for T, Initial residual = 0.00146312, Final residual = 4.22091e-06, No Iterations 1
DICPCG:  Solving for p_rgh, Initial residual = 0.000418754, Final residual = 3.99195e-06, No Iterations 138
time step continuity errors : sum local = 4.08135e-10, global = 1.2709e-12, cumulative = 3.80671e-07
DILUPBiCGStab:  Solving for epsilon, Initial residual = 1.05873e-05, Final residual = 3.66006e-07, No Iterations 1
DILUPBiCGStab:  Solving for k, Initial residual = 0.00022081, Final residual = 2.61203e-06, No Iterations 1
ExecutionTime = 368.92 s  ClockTime = 370 s

Time = 152.5

DILUPBiCGStab:  Solving for Ux, Initial residual = 0.000144481, Final residual = 2.04651e-07, No Iterations 1
DILUPBiCGStab:  Solving for Uy, Initial residual = 0.000997832, Final residual = 9.90288e-07, No Iterations 1
DILUPBiCGStab:  Solving for Uz, Initial residual = 0.00135149, Final residual = 1.44649e-06, No Iterations 1
DILUPBiCGStab:  Solving for T, Initial residual = 0.00146208, Final residual = 4.21589e-06, No Iterations 1
DICPCG:  Solving for p_rgh, Initial residual = 0.00041801, Final residual = 4.00312e-06, No Iterations 138
time step continuity errors : sum local = 4.09097e-10, global = 1.28159e-12, cumulative = 3.80673e-07
DILUPBiCGStab:  Solving for epsilon, Initial residual = 1.05858e-05, Final residual = 3.6593e-07, No Iterations 1
DILUPBiCGStab:  Solving for k, Initial residual = 0.00022097, Final residual = 2.61226e-06, No Iterations 1
ExecutionTime = 383.88 s  ClockTime = 385 s

Time = 152.6

DILUPBiCGStab:  Solving for Ux, Initial residual = 0.000144368, Final residual = 2.04474e-07, No Iterations 1
DILUPBiCGStab:  Solving for Uy, Initial residual = 0.00099757, Final residual = 9.8985e-07, No Iterations 1
DILUPBiCGStab:  Solving for Uz, Initial residual = 0.00135139, Final residual = 1.4448e-06, No Iterations 1
DILUPBiCGStab:  Solving for T, Initial residual = 0.00146103, Final residual = 4.21119e-06, No Iterations 1
DICPCG:  Solving for p_rgh, Initial residual = 0.000416165, Final residual = 3.9776e-06, No Iterations 138
time step continuity errors : sum local = 4.06312e-10, global = 1.21473e-12, cumulative = 3.80674e-07
DILUPBiCGStab:  Solving for epsilon, Initial residual = 1.05843e-05, Final residual = 3.65852e-07, No Iterations 1
DILUPBiCGStab:  Solving for k, Initial residual = 0.00022113, Final residual = 2.61247e-06, No Iterations 1
ExecutionTime = 398.81 s  ClockTime = 400 s

Time = 152.7

DILUPBiCGStab:  Solving for Ux, Initial residual = 0.000144256, Final residual = 2.04297e-07, No Iterations 1
DILUPBiCGStab:  Solving for Uy, Initial residual = 0.00099731, Final residual = 9.89405e-07, No Iterations 1
DILUPBiCGStab:  Solving for Uz, Initial residual = 0.00135132, Final residual = 1.44326e-06, No Iterations 1
DILUPBiCGStab:  Solving for T, Initial residual = 0.00145997, Final residual = 4.20674e-06, No Iterations 1
DICPCG:  Solving for p_rgh, Initial residual = 0.000415641, Final residual = 4.03007e-06, No Iterations 138
time step continuity errors : sum local = 4.11493e-10, global = 1.25774e-12, cumulative = 3.80675e-07
DILUPBiCGStab:  Solving for epsilon, Initial residual = 1.05829e-05, Final residual = 3.65775e-07, No Iterations 1
DILUPBiCGStab:  Solving for k, Initial residual = 0.000221289, Final residual = 2.61268e-06, No Iterations 1
ExecutionTime = 414.08 s  ClockTime = 415 s

Time = 152.8

DILUPBiCGStab:  Solving for Ux, Initial residual = 0.000144144, Final residual = 2.0412e-07, No Iterations 1
DILUPBiCGStab:  Solving for Uy, Initial residual = 0.000997048, Final residual = 9.88959e-07, No Iterations 1
DILUPBiCGStab:  Solving for Uz, Initial residual = 0.00135123, Final residual = 1.44251e-06, No Iterations 1
DILUPBiCGStab:  Solving for T, Initial residual = 0.00145892, Final residual = 4.20242e-06, No Iterations 1
DICPCG:  Solving for p_rgh, Initial residual = 0.000418932, Final residual = 4.06111e-06, No Iterations 138
time step continuity errors : sum local = 4.14483e-10, global = 1.21916e-12, cumulative = 3.80676e-07
DILUPBiCGStab:  Solving for epsilon, Initial residual = 1.05814e-05, Final residual = 3.65698e-07, No Iterations 1
DILUPBiCGStab:  Solving for k, Initial residual = 0.000221448, Final residual = 2.61287e-06, No Iterations 1
ExecutionTime = 429.21 s  ClockTime = 430 s

Time = 152.9

DILUPBiCGStab:  Solving for Ux, Initial residual = 0.000144032, Final residual = 2.03944e-07, No Iterations 1
DILUPBiCGStab:  Solving for Uy, Initial residual = 0.000996787, Final residual = 9.88512e-07, No Iterations 1
DILUPBiCGStab:  Solving for Uz, Initial residual = 0.00135112, Final residual = 1.442e-06, No Iterations 1
DILUPBiCGStab:  Solving for T, Initial residual = 0.0014579, Final residual = 4.19815e-06, No Iterations 1
DICPCG:  Solving for p_rgh, Initial residual = 0.000419694, Final residual = 4.08094e-06, No Iterations 138
time step continuity errors : sum local = 4.16327e-10, global = 1.2421e-12, cumulative = 3.80678e-07
DILUPBiCGStab:  Solving for epsilon, Initial residual = 1.058e-05, Final residual = 3.6562e-07, No Iterations 1
DILUPBiCGStab:  Solving for k, Initial residual = 0.000221606, Final residual = 2.61306e-06, No Iterations 1
ExecutionTime = 444.22 s  ClockTime = 445 s

Time = 153

DILUPBiCGStab:  Solving for Ux, Initial residual = 0.00014392, Final residual = 2.03768e-07, No Iterations 1
DILUPBiCGStab:  Solving for Uy, Initial residual = 0.000996525, Final residual = 9.88058e-07, No Iterations 1
DILUPBiCGStab:  Solving for Uz, Initial residual = 0.00135101, Final residual = 1.44088e-06, No Iterations 1
DILUPBiCGStab:  Solving for T, Initial residual = 0.00145691, Final residual = 4.19385e-06, No Iterations 1
DICPCG:  Solving for p_rgh, Initial residual = 0.000417433, Final residual = 4.0628e-06, No Iterations 138
time step continuity errors : sum local = 4.14299e-10, global = 1.23242e-12, cumulative = 3.80679e-07
DILUPBiCGStab:  Solving for epsilon, Initial residual = 1.05786e-05, Final residual = 3.65542e-07, No Iterations 1
DILUPBiCGStab:  Solving for k, Initial residual = 0.000221764, Final residual = 2.61324e-06, No Iterations 1
ExecutionTime = 458.86 s  ClockTime = 460 s

Time = 153.1

DILUPBiCGStab:  Solving for Ux, Initial residual = 0.000143808, Final residual = 2.03592e-07, No Iterations 1
DILUPBiCGStab:  Solving for Uy, Initial residual = 0.000996263, Final residual = 9.87599e-07, No Iterations 1
DILUPBiCGStab:  Solving for Uz, Initial residual = 0.00135091, Final residual = 1.43977e-06, No Iterations 1
DILUPBiCGStab:  Solving for T, Initial residual = 0.00145597, Final residual = 4.18954e-06, No Iterations 1
DICPCG:  Solving for p_rgh, Initial residual = 0.000416094, Final residual = 4.09577e-06, No Iterations 138
time step continuity errors : sum local = 4.17483e-10, global = 1.18904e-12, cumulative = 3.8068e-07
DILUPBiCGStab:  Solving for epsilon, Initial residual = 1.05772e-05, Final residual = 3.65464e-07, No Iterations 1
DILUPBiCGStab:  Solving for k, Initial residual = 0.000221921, Final residual = 2.61341e-06, No Iterations 1
ExecutionTime = 473.63 s  ClockTime = 475 s

Time = 153.2

DILUPBiCGStab:  Solving for Ux, Initial residual = 0.000143697, Final residual = 2.03417e-07, No Iterations 1
DILUPBiCGStab:  Solving for Uy, Initial residual = 0.000996003, Final residual = 9.87135e-07, No Iterations 1
DILUPBiCGStab:  Solving for Uz, Initial residual = 0.00135083, Final residual = 1.43922e-06, No Iterations 1
DILUPBiCGStab:  Solving for T, Initial residual = 0.00145513, Final residual = 4.18525e-06, No Iterations 1
DICPCG:  Solving for p_rgh, Initial residual = 0.000416354, Final residual = 4.08378e-06, No Iterations 138
time step continuity errors : sum local = 4.16084e-10, global = 1.1262e-12, cumulative = 3.80681e-07
DILUPBiCGStab:  Solving for epsilon, Initial residual = 1.05758e-05, Final residual = 3.65386e-07, No Iterations 1
DILUPBiCGStab:  Solving for k, Initial residual = 0.000222077, Final residual = 2.61358e-06, No Iterations 1
ExecutionTime = 488.27 s  ClockTime = 490 s

Time = 153.3

DILUPBiCGStab:  Solving for Ux, Initial residual = 0.000143585, Final residual = 2.03241e-07, No Iterations 1
DILUPBiCGStab:  Solving for Uy, Initial residual = 0.000995743, Final residual = 9.86665e-07, No Iterations 1
DILUPBiCGStab:  Solving for Uz, Initial residual = 0.00135075, Final residual = 1.43857e-06, No Iterations 1
DILUPBiCGStab:  Solving for T, Initial residual = 0.00145433, Final residual = 4.18105e-06, No Iterations 1
DICPCG:  Solving for p_rgh, Initial residual = 0.000420075, Final residual = 4.14481e-06, No Iterations 138
time step continuity errors : sum local = 4.22121e-10, global = 1.13195e-12, cumulative = 3.80682e-07
DILUPBiCGStab:  Solving for epsilon, Initial residual = 1.05744e-05, Final residual = 3.65308e-07, No Iterations 1
DILUPBiCGStab:  Solving for k, Initial residual = 0.000222233, Final residual = 2.61373e-06, No Iterations 1
ExecutionTime = 502.97 s  ClockTime = 504 s

Time = 153.4

DILUPBiCGStab:  Solving for Ux, Initial residual = 0.000143474, Final residual = 2.03066e-07, No Iterations 1
DILUPBiCGStab:  Solving for Uy, Initial residual = 0.000995483, Final residual = 9.86194e-07, No Iterations 1
DILUPBiCGStab:  Solving for Uz, Initial residual = 0.0013507, Final residual = 1.43807e-06, No Iterations 1
DILUPBiCGStab:  Solving for T, Initial residual = 0.00145351, Final residual = 4.17685e-06, No Iterations 1
DICPCG:  Solving for p_rgh, Initial residual = 0.000422973, Final residual = 4.17649e-06, No Iterations 138
time step continuity errors : sum local = 4.25164e-10, global = 1.1579e-12, cumulative = 3.80683e-07
DILUPBiCGStab:  Solving for epsilon, Initial residual = 1.0573e-05, Final residual = 3.6523e-07, No Iterations 1
DILUPBiCGStab:  Solving for k, Initial residual = 0.000222388, Final residual = 2.61388e-06, No Iterations 1
ExecutionTime = 517.61 s  ClockTime = 519 s

Time = 153.5

DILUPBiCGStab:  Solving for Ux, Initial residual = 0.000143362, Final residual = 2.02891e-07, No Iterations 1
DILUPBiCGStab:  Solving for Uy, Initial residual = 0.000995226, Final residual = 9.85718e-07, No Iterations 1
DILUPBiCGStab:  Solving for Uz, Initial residual = 0.00135071, Final residual = 1.43811e-06, No Iterations 1
DILUPBiCGStab:  Solving for T, Initial residual = 0.00145268, Final residual = 4.17262e-06, No Iterations 1
DICPCG:  Solving for p_rgh, Initial residual = 0.000423351, Final residual = 4.16831e-06, No Iterations 138
time step continuity errors : sum local = 4.24148e-10, global = 1.16938e-12, cumulative = 3.80685e-07
DILUPBiCGStab:  Solving for epsilon, Initial residual = 1.05717e-05, Final residual = 3.65151e-07, No Iterations 1
DILUPBiCGStab:  Solving for k, Initial residual = 0.000222543, Final residual = 2.61402e-06, No Iterations 1
ExecutionTime = 532.33 s  ClockTime = 534 s

Time = 153.6

DILUPBiCGStab:  Solving for Ux, Initial residual = 0.000143251, Final residual = 2.02717e-07, No Iterations 1
DILUPBiCGStab:  Solving for Uy, Initial residual = 0.00099497, Final residual = 9.8524e-07, No Iterations 1
DILUPBiCGStab:  Solving for Uz, Initial residual = 0.00135074, Final residual = 1.43847e-06, No Iterations 1
DILUPBiCGStab:  Solving for T, Initial residual = 0.00145184, Final residual = 4.16835e-06, No Iterations 1
DICPCG:  Solving for p_rgh, Initial residual = 0.000422911, Final residual = 4.18738e-06, No Iterations 138
time step continuity errors : sum local = 4.25902e-10, global = 1.12247e-12, cumulative = 3.80686e-07
DILUPBiCGStab:  Solving for epsilon, Initial residual = 1.05703e-05, Final residual = 3.65072e-07, No Iterations 1
DILUPBiCGStab:  Solving for k, Initial residual = 0.000222697, Final residual = 2.61415e-06, No Iterations 1
ExecutionTime = 547.01 s  ClockTime = 548 s

Time = 153.7

DILUPBiCGStab:  Solving for Ux, Initial residual = 0.00014314, Final residual = 2.02542e-07, No Iterations 1
DILUPBiCGStab:  Solving for Uy, Initial residual = 0.000994713, Final residual = 9.84756e-07, No Iterations 1
DILUPBiCGStab:  Solving for Uz, Initial residual = 0.00135076, Final residual = 1.43863e-06, No Iterations 1
DILUPBiCGStab:  Solving for T, Initial residual = 0.00145098, Final residual = 4.16404e-06, No Iterations 1
DICPCG:  Solving for p_rgh, Initial residual = 0.000422268, Final residual = 4.1871e-06, No Iterations 138
time step continuity errors : sum local = 4.25689e-10, global = 1.06891e-12, cumulative = 3.80687e-07
DILUPBiCGStab:  Solving for epsilon, Initial residual = 1.0569e-05, Final residual = 3.64992e-07, No Iterations 1
DILUPBiCGStab:  Solving for k, Initial residual = 0.000222851, Final residual = 2.61428e-06, No Iterations 1
ExecutionTime = 561.71 s  ClockTime = 563 s

Time = 153.8

DILUPBiCGStab:  Solving for Ux, Initial residual = 0.000143029, Final residual = 2.02368e-07, No Iterations 1
DILUPBiCGStab:  Solving for Uy, Initial residual = 0.000994455, Final residual = 9.84269e-07, No Iterations 1
DILUPBiCGStab:  Solving for Uz, Initial residual = 0.00135073, Final residual = 1.43845e-06, No Iterations 1
DILUPBiCGStab:  Solving for T, Initial residual = 0.00145011, Final residual = 4.15972e-06, No Iterations 1
DICPCG:  Solving for p_rgh, Initial residual = 0.000422836, Final residual = 4.20151e-06, No Iterations 138
time step continuity errors : sum local = 4.26971e-10, global = 1.08578e-12, cumulative = 3.80688e-07
DILUPBiCGStab:  Solving for epsilon, Initial residual = 1.05676e-05, Final residual = 3.64912e-07, No Iterations 1
DILUPBiCGStab:  Solving for k, Initial residual = 0.000223004, Final residual = 2.6144e-06, No Iterations 1
ExecutionTime = 576.92 s  ClockTime = 578 s

Time = 153.9

DILUPBiCGStab:  Solving for Ux, Initial residual = 0.000142918, Final residual = 2.02194e-07, No Iterations 1
DILUPBiCGStab:  Solving for Uy, Initial residual = 0.0009942, Final residual = 9.8378e-07, No Iterations 1
DILUPBiCGStab:  Solving for Uz, Initial residual = 0.00135069, Final residual = 1.43876e-06, No Iterations 1
DILUPBiCGStab:  Solving for T, Initial residual = 0.00144924, Final residual = 4.15544e-06, No Iterations 1
DICPCG:  Solving for p_rgh, Initial residual = 0.000426944, Final residual = 4.1919e-06, No Iterations 138
time step continuity errors : sum local = 4.25811e-10, global = 1.07839e-12, cumulative = 3.80689e-07
DILUPBiCGStab:  Solving for epsilon, Initial residual = 1.05663e-05, Final residual = 3.64832e-07, No Iterations 1
DILUPBiCGStab:  Solving for k, Initial residual = 0.000223157, Final residual = 2.61451e-06, No Iterations 1
ExecutionTime = 592.01 s  ClockTime = 593 s

Time = 154

DILUPBiCGStab:  Solving for Ux, Initial residual = 0.000142807, Final residual = 2.0202e-07, No Iterations 1
DILUPBiCGStab:  Solving for Uy, Initial residual = 0.000993943, Final residual = 9.83285e-07, No Iterations 1
DILUPBiCGStab:  Solving for Uz, Initial residual = 0.00135065, Final residual = 1.4386e-06, No Iterations 1
DILUPBiCGStab:  Solving for T, Initial residual = 0.00144835, Final residual = 4.15115e-06, No Iterations 1
DICPCG:  Solving for p_rgh, Initial residual = 0.000425145, Final residual = 4.22968e-06, No Iterations 138
time step continuity errors : sum local = 4.29466e-10, global = 1.09248e-12, cumulative = 3.8069e-07
DILUPBiCGStab:  Solving for epsilon, Initial residual = 1.0565e-05, Final residual = 3.64751e-07, No Iterations 1
DILUPBiCGStab:  Solving for k, Initial residual = 0.000223309, Final residual = 2.61462e-06, No Iterations 1
ExecutionTime = 606.98 s  ClockTime = 608 s

Time = 154.1

DILUPBiCGStab:  Solving for Ux, Initial residual = 0.000142696, Final residual = 2.01846e-07, No Iterations 1
DILUPBiCGStab:  Solving for Uy, Initial residual = 0.000993688, Final residual = 9.8278e-07, No Iterations 1
DILUPBiCGStab:  Solving for Uz, Initial residual = 0.00135061, Final residual = 1.43806e-06, No Iterations 1
DILUPBiCGStab:  Solving for T, Initial residual = 0.00144744, Final residual = 4.14689e-06, No Iterations 1
DICPCG:  Solving for p_rgh, Initial residual = 0.000422691, Final residual = 3.53642e-06, No Iterations 139
time step continuity errors : sum local = 3.58921e-10, global = 1.83778e-13, cumulative = 3.8069e-07
DILUPBiCGStab:  Solving for epsilon, Initial residual = 1.05637e-05, Final residual = 3.64669e-07, No Iterations 1
DILUPBiCGStab:  Solving for k, Initial residual = 0.000223461, Final residual = 2.61472e-06, No Iterations 1
ExecutionTime = 621.8 s  ClockTime = 623 s

Time = 154.2

DILUPBiCGStab:  Solving for Ux, Initial residual = 0.000142586, Final residual = 2.01672e-07, No Iterations 1
DILUPBiCGStab:  Solving for Uy, Initial residual = 0.000993433, Final residual = 9.82272e-07, No Iterations 1
DILUPBiCGStab:  Solving for Uz, Initial residual = 0.00135052, Final residual = 1.43675e-06, No Iterations 1
DILUPBiCGStab:  Solving for T, Initial residual = 0.00144651, Final residual = 4.14287e-06, No Iterations 1
DICPCG:  Solving for p_rgh, Initial residual = 0.000421989, Final residual = 3.51099e-06, No Iterations 139
time step continuity errors : sum local = 3.56187e-10, global = 1.76721e-13, cumulative = 3.8069e-07
DILUPBiCGStab:  Solving for epsilon, Initial residual = 1.05625e-05, Final residual = 3.64587e-07, No Iterations 1
DILUPBiCGStab:  Solving for k, Initial residual = 0.000223612, Final residual = 2.61481e-06, No Iterations 1
ExecutionTime = 636.53 s  ClockTime = 638 s

Time = 154.3

DILUPBiCGStab:  Solving for Ux, Initial residual = 0.000142475, Final residual = 2.01498e-07, No Iterations 1
DILUPBiCGStab:  Solving for Uy, Initial residual = 0.00099318, Final residual = 9.81763e-07, No Iterations 1
DILUPBiCGStab:  Solving for Uz, Initial residual = 0.00135043, Final residual = 1.43539e-06, No Iterations 1
DILUPBiCGStab:  Solving for T, Initial residual = 0.00144556, Final residual = 4.13873e-06, No Iterations 1
DICPCG:  Solving for p_rgh, Initial residual = 0.000422916, Final residual = 3.52739e-06, No Iterations 139
time step continuity errors : sum local = 3.57697e-10, global = 1.9365e-13, cumulative = 3.80691e-07
DILUPBiCGStab:  Solving for epsilon, Initial residual = 1.05612e-05, Final residual = 3.64505e-07, No Iterations 1
DILUPBiCGStab:  Solving for k, Initial residual = 0.000223763, Final residual = 2.61489e-06, No Iterations 1
ExecutionTime = 651.38 s  ClockTime = 653 s

Time = 154.4

DILUPBiCGStab:  Solving for Ux, Initial residual = 0.000142365, Final residual = 2.01324e-07, No Iterations 1
DILUPBiCGStab:  Solving for Uy, Initial residual = 0.000992926, Final residual = 9.81251e-07, No Iterations 1
DILUPBiCGStab:  Solving for Uz, Initial residual = 0.00135036, Final residual = 1.43439e-06, No Iterations 1
DILUPBiCGStab:  Solving for T, Initial residual = 0.00144461, Final residual = 4.13467e-06, No Iterations 1
DICPCG:  Solving for p_rgh, Initial residual = 0.000423177, Final residual = 3.55692e-06, No Iterations 139
time step continuity errors : sum local = 3.60536e-10, global = 1.23238e-13, cumulative = 3.80691e-07
DILUPBiCGStab:  Solving for epsilon, Initial residual = 1.05599e-05, Final residual = 3.64421e-07, No Iterations 1
DILUPBiCGStab:  Solving for k, Initial residual = 0.000223913, Final residual = 2.61497e-06, No Iterations 1
ExecutionTime = 666.09 s  ClockTime = 668 s

Time = 154.5

DILUPBiCGStab:  Solving for Ux, Initial residual = 0.000142255, Final residual = 2.0115e-07, No Iterations 1
DILUPBiCGStab:  Solving for Uy, Initial residual = 0.000992671, Final residual = 9.80738e-07, No Iterations 1
DILUPBiCGStab:  Solving for Uz, Initial residual = 0.00135031, Final residual = 1.4338e-06, No Iterations 1
DILUPBiCGStab:  Solving for T, Initial residual = 0.00144365, Final residual = 4.13067e-06, No Iterations 1
DICPCG:  Solving for p_rgh, Initial residual = 0.000421679, Final residual = 3.56591e-06, No Iterations 139
time step continuity errors : sum local = 3.61293e-10, global = 4.51457e-14, cumulative = 3.80691e-07
DILUPBiCGStab:  Solving for epsilon, Initial residual = 1.05586e-05, Final residual = 3.64336e-07, No Iterations 1
DILUPBiCGStab:  Solving for k, Initial residual = 0.000224063, Final residual = 2.61504e-06, No Iterations 1
ExecutionTime = 680.87 s  ClockTime = 682 s

Time = 154.6

DILUPBiCGStab:  Solving for Ux, Initial residual = 0.000142144, Final residual = 2.00977e-07, No Iterations 1
DILUPBiCGStab:  Solving for Uy, Initial residual = 0.000992417, Final residual = 9.80217e-07, No Iterations 1
DILUPBiCGStab:  Solving for Uz, Initial residual = 0.00135026, Final residual = 1.43299e-06, No Iterations 1
DILUPBiCGStab:  Solving for T, Initial residual = 0.00144269, Final residual = 4.1267e-06, No Iterations 1
DICPCG:  Solving for p_rgh, Initial residual = 0.000423027, Final residual = 3.56341e-06, No Iterations 139
time step continuity errors : sum local = 3.60885e-10, global = -2.43726e-14, cumulative = 3.80691e-07
DILUPBiCGStab:  Solving for epsilon, Initial residual = 1.05574e-05, Final residual = 3.64251e-07, No Iterations 1
DILUPBiCGStab:  Solving for k, Initial residual = 0.000224213, Final residual = 2.6151e-06, No Iterations 1
ExecutionTime = 695.62 s  ClockTime = 697 s

Time = 154.7

DILUPBiCGStab:  Solving for Ux, Initial residual = 0.000142034, Final residual = 2.00803e-07, No Iterations 1
DILUPBiCGStab:  Solving for Uy, Initial residual = 0.000992165, Final residual = 9.79692e-07, No Iterations 1
DILUPBiCGStab:  Solving for Uz, Initial residual = 0.0013502, Final residual = 1.43232e-06, No Iterations 1
DILUPBiCGStab:  Solving for T, Initial residual = 0.0014417, Final residual = 4.1228e-06, No Iterations 1
DICPCG:  Solving for p_rgh, Initial residual = 0.000424137, Final residual = 3.55104e-06, No Iterations 139
time step continuity errors : sum local = 3.59477e-10, global = -6.65933e-14, cumulative = 3.80691e-07
DILUPBiCGStab:  Solving for epsilon, Initial residual = 1.05561e-05, Final residual = 3.64165e-07, No Iterations 1
DILUPBiCGStab:  Solving for k, Initial residual = 0.000224362, Final residual = 2.61515e-06, No Iterations 1
ExecutionTime = 710.4 s  ClockTime = 712 s

Time = 154.8

DILUPBiCGStab:  Solving for Ux, Initial residual = 0.000141924, Final residual = 2.0063e-07, No Iterations 1
DILUPBiCGStab:  Solving for Uy, Initial residual = 0.000991913, Final residual = 9.79161e-07, No Iterations 1
DILUPBiCGStab:  Solving for Uz, Initial residual = 0.00135014, Final residual = 1.4313e-06, No Iterations 1
DILUPBiCGStab:  Solving for T, Initial residual = 0.00144071, Final residual = 4.11903e-06, No Iterations 1
DICPCG:  Solving for p_rgh, Initial residual = 0.00042451, Final residual = 3.58008e-06, No Iterations 139
time step continuity errors : sum local = 3.62262e-10, global = -8.01783e-14, cumulative = 3.80691e-07
DILUPBiCGStab:  Solving for epsilon, Initial residual = 1.05548e-05, Final residual = 3.64079e-07, No Iterations 1
DILUPBiCGStab:  Solving for k, Initial residual = 0.000224511, Final residual = 2.6152e-06, No Iterations 1
ExecutionTime = 725.34 s  ClockTime = 727 s

Time = 154.9

DILUPBiCGStab:  Solving for Ux, Initial residual = 0.000141814, Final residual = 2.00457e-07, No Iterations 1
DILUPBiCGStab:  Solving for Uy, Initial residual = 0.00099166, Final residual = 9.78625e-07, No Iterations 1
DILUPBiCGStab:  Solving for Uz, Initial residual = 0.00135008, Final residual = 1.43045e-06, No Iterations 1
DILUPBiCGStab:  Solving for T, Initial residual = 0.00143971, Final residual = 4.11534e-06, No Iterations 1
DICPCG:  Solving for p_rgh, Initial residual = 0.000423054, Final residual = 3.58139e-06, No Iterations 139
time step continuity errors : sum local = 3.6224e-10, global = -6.84003e-14, cumulative = 3.8069e-07
DILUPBiCGStab:  Solving for epsilon, Initial residual = 1.05535e-05, Final residual = 3.63992e-07, No Iterations 1
DILUPBiCGStab:  Solving for k, Initial residual = 0.000224659, Final residual = 2.61524e-06, No Iterations 1
ExecutionTime = 740.54 s  ClockTime = 742 s

Time = 155

DILUPBiCGStab:  Solving for Ux, Initial residual = 0.000141704, Final residual = 2.00284e-07, No Iterations 1
DILUPBiCGStab:  Solving for Uy, Initial residual = 0.000991407, Final residual = 9.78089e-07, No Iterations 1
DILUPBiCGStab:  Solving for Uz, Initial residual = 0.00134998, Final residual = 1.42974e-06, No Iterations 1
DILUPBiCGStab:  Solving for T, Initial residual = 0.0014387, Final residual = 4.1117e-06, No Iterations 1
DICPCG:  Solving for p_rgh, Initial residual = 0.00042305, Final residual = 3.58528e-06, No Iterations 139
time step continuity errors : sum local = 3.62481e-10, global = -1.43865e-13, cumulative = 3.8069e-07
DILUPBiCGStab:  Solving for epsilon, Initial residual = 1.05522e-05, Final residual = 3.63904e-07, No Iterations 1
DILUPBiCGStab:  Solving for k, Initial residual = 0.000224807, Final residual = 2.61528e-06, No Iterations 1
ExecutionTime = 755.42 s  ClockTime = 757 s

Time = 155.1

DILUPBiCGStab:  Solving for Ux, Initial residual = 0.000141594, Final residual = 2.00112e-07, No Iterations 1
DILUPBiCGStab:  Solving for Uy, Initial residual = 0.000991152, Final residual = 9.77552e-07, No Iterations 1
DILUPBiCGStab:  Solving for Uz, Initial residual = 0.00134981, Final residual = 1.42856e-06, No Iterations 1
DILUPBiCGStab:  Solving for T, Initial residual = 0.00143768, Final residual = 4.10811e-06, No Iterations 1
DICPCG:  Solving for p_rgh, Initial residual = 0.000424789, Final residual = 3.62094e-06, No Iterations 139
time step continuity errors : sum local = 3.65931e-10, global = -1.63362e-13, cumulative = 3.8069e-07
DILUPBiCGStab:  Solving for epsilon, Initial residual = 1.05509e-05, Final residual = 3.63815e-07, No Iterations 1
DILUPBiCGStab:  Solving for k, Initial residual = 0.000224954, Final residual = 2.61531e-06, No Iterations 1
ExecutionTime = 771.06 s  ClockTime = 773 s

Time = 155.2

DILUPBiCGStab:  Solving for Ux, Initial residual = 0.000141485, Final residual = 1.99939e-07, No Iterations 1
DILUPBiCGStab:  Solving for Uy, Initial residual = 0.000990896, Final residual = 9.77013e-07, No Iterations 1
DILUPBiCGStab:  Solving for Uz, Initial residual = 0.00134975, Final residual = 1.42791e-06, No Iterations 1
DILUPBiCGStab:  Solving for T, Initial residual = 0.00143666, Final residual = 4.10463e-06, No Iterations 1
DICPCG:  Solving for p_rgh, Initial residual = 0.000424478, Final residual = 3.59906e-06, No Iterations 139
time step continuity errors : sum local = 3.63566e-10, global = -1.67758e-13, cumulative = 3.8069e-07
DILUPBiCGStab:  Solving for epsilon, Initial residual = 1.05496e-05, Final residual = 3.63727e-07, No Iterations 1
DILUPBiCGStab:  Solving for k, Initial residual = 0.000225101, Final residual = 2.61533e-06, No Iterations 1
ExecutionTime = 786.01 s  ClockTime = 788 s

Time = 155.3

DILUPBiCGStab:  Solving for Ux, Initial residual = 0.000141375, Final residual = 1.99767e-07, No Iterations 1
DILUPBiCGStab:  Solving for Uy, Initial residual = 0.00099064, Final residual = 9.76471e-07, No Iterations 1
DILUPBiCGStab:  Solving for Uz, Initial residual = 0.00134963, Final residual = 1.42662e-06, No Iterations 1
DILUPBiCGStab:  Solving for T, Initial residual = 0.00143565, Final residual = 4.1013e-06, No Iterations 1
DICPCG:  Solving for p_rgh, Initial residual = 0.000421002, Final residual = 3.62102e-06, No Iterations 139
time step continuity errors : sum local = 3.65629e-10, global = -2.24269e-13, cumulative = 3.8069e-07
DILUPBiCGStab:  Solving for epsilon, Initial residual = 1.05482e-05, Final residual = 3.63638e-07, No Iterations 1
DILUPBiCGStab:  Solving for k, Initial residual = 0.000225248, Final residual = 2.61535e-06, No Iterations 1
ExecutionTime = 804.86 s  ClockTime = 807 s

Time = 155.4

DILUPBiCGStab:  Solving for Ux, Initial residual = 0.000141266, Final residual = 1.99596e-07, No Iterations 1
DILUPBiCGStab:  Solving for Uy, Initial residual = 0.000990384, Final residual = 9.7593e-07, No Iterations 1
DILUPBiCGStab:  Solving for Uz, Initial residual = 0.00134964, Final residual = 1.42756e-06, No Iterations 1
DILUPBiCGStab:  Solving for T, Initial residual = 0.00143463, Final residual = 4.09807e-06, No Iterations 1
DICPCG:  Solving for p_rgh, Initial residual = 0.000424045, Final residual = 3.62431e-06, No Iterations 139
time step continuity errors : sum local = 3.65807e-10, global = -2.21861e-13, cumulative = 3.8069e-07
DILUPBiCGStab:  Solving for epsilon, Initial residual = 1.05469e-05, Final residual = 3.63547e-07, No Iterations 1
DILUPBiCGStab:  Solving for k, Initial residual = 0.000225394, Final residual = 2.61536e-06, No Iterations 1
ExecutionTime = 820.2 s  ClockTime = 822 s

Time = 155.5

DILUPBiCGStab:  Solving for Ux, Initial residual = 0.000141156, Final residual = 1.99424e-07, No Iterations 1
DILUPBiCGStab:  Solving for Uy, Initial residual = 0.000990128, Final residual = 9.75389e-07, No Iterations 1
DILUPBiCGStab:  Solving for Uz, Initial residual = 0.00134956, Final residual = 1.42603e-06, No Iterations 1
DILUPBiCGStab:  Solving for T, Initial residual = 0.00143361, Final residual = 4.09496e-06, No Iterations 1
DICPCG:  Solving for p_rgh, Initial residual = 0.000424229, Final residual = 3.60767e-06, No Iterations 139
time step continuity errors : sum local = 3.63971e-10, global = -3.41872e-13, cumulative = 3.80689e-07
DILUPBiCGStab:  Solving for epsilon, Initial residual = 1.05455e-05, Final residual = 3.63455e-07, No Iterations 1
DILUPBiCGStab:  Solving for k, Initial residual = 0.00022554, Final residual = 2.61537e-06, No Iterations 1
ExecutionTime = 835.85 s  ClockTime = 838 s

Time = 155.6

DILUPBiCGStab:  Solving for Ux, Initial residual = 0.000141047, Final residual = 1.99253e-07, No Iterations 1
DILUPBiCGStab:  Solving for Uy, Initial residual = 0.000989874, Final residual = 9.74847e-07, No Iterations 1
DILUPBiCGStab:  Solving for Uz, Initial residual = 0.00134953, Final residual = 1.42453e-06, No Iterations 1
DILUPBiCGStab:  Solving for T, Initial residual = 0.0014326, Final residual = 4.0918e-06, No Iterations 1
DICPCG:  Solving for p_rgh, Initial residual = 0.00042349, Final residual = 3.65415e-06, No Iterations 139
time step continuity errors : sum local = 3.68503e-10, global = -2.86446e-13, cumulative = 3.80689e-07
DILUPBiCGStab:  Solving for epsilon, Initial residual = 1.05441e-05, Final residual = 3.63364e-07, No Iterations 1
DILUPBiCGStab:  Solving for k, Initial residual = 0.000225686, Final residual = 2.61537e-06, No Iterations 1
ExecutionTime = 851.04 s  ClockTime = 853 s

Time = 155.7

DILUPBiCGStab:  Solving for Ux, Initial residual = 0.000140937, Final residual = 1.99082e-07, No Iterations 1
DILUPBiCGStab:  Solving for Uy, Initial residual = 0.00098962, Final residual = 9.7431e-07, No Iterations 1
DILUPBiCGStab:  Solving for Uz, Initial residual = 0.00134956, Final residual = 1.425e-06, No Iterations 1
DILUPBiCGStab:  Solving for T, Initial residual = 0.00143163, Final residual = 4.08861e-06, No Iterations 1
DICPCG:  Solving for p_rgh, Initial residual = 0.000423579, Final residual = 3.64959e-06, No Iterations 139
time step continuity errors : sum local = 3.67885e-10, global = -2.72018e-13, cumulative = 3.80689e-07
DILUPBiCGStab:  Solving for epsilon, Initial residual = 1.05428e-05, Final residual = 3.63271e-07, No Iterations 1
DILUPBiCGStab:  Solving for k, Initial residual = 0.000225831, Final residual = 2.61537e-06, No Iterations 1
ExecutionTime = 867.8 s  ClockTime = 870 s

Time = 155.8

DILUPBiCGStab:  Solving for Ux, Initial residual = 0.000140828, Final residual = 1.98911e-07, No Iterations 1
DILUPBiCGStab:  Solving for Uy, Initial residual = 0.000989368, Final residual = 9.73776e-07, No Iterations 1
DILUPBiCGStab:  Solving for Uz, Initial residual = 0.00134955, Final residual = 1.42417e-06, No Iterations 1
DILUPBiCGStab:  Solving for T, Initial residual = 0.00143069, Final residual = 4.08532e-06, No Iterations 1
DICPCG:  Solving for p_rgh, Initial residual = 0.000422038, Final residual = 3.64104e-06, No Iterations 139
time step continuity errors : sum local = 3.66865e-10, global = -3.18143e-13, cumulative = 3.80688e-07
DILUPBiCGStab:  Solving for epsilon, Initial residual = 1.05414e-05, Final residual = 3.63179e-07, No Iterations 1
DILUPBiCGStab:  Solving for k, Initial residual = 0.000225976, Final residual = 2.61536e-06, No Iterations 1
ExecutionTime = 882.62 s  ClockTime = 884 s

Time = 155.9

DILUPBiCGStab:  Solving for Ux, Initial residual = 0.000140719, Final residual = 1.98741e-07, No Iterations 1
DILUPBiCGStab:  Solving for Uy, Initial residual = 0.000989114, Final residual = 9.73246e-07, No Iterations 1
DILUPBiCGStab:  Solving for Uz, Initial residual = 0.00134952, Final residual = 1.42301e-06, No Iterations 1
DILUPBiCGStab:  Solving for T, Initial residual = 0.0014298, Final residual = 4.08197e-06, No Iterations 1
DICPCG:  Solving for p_rgh, Initial residual = 0.000421037, Final residual = 3.6477e-06, No Iterations 139
time step continuity errors : sum local = 3.67377e-10, global = -4.37093e-13, cumulative = 3.80688e-07
DILUPBiCGStab:  Solving for epsilon, Initial residual = 1.05399e-05, Final residual = 3.63085e-07, No Iterations 1
DILUPBiCGStab:  Solving for k, Initial residual = 0.000226121, Final residual = 2.61534e-06, No Iterations 1
ExecutionTime = 897.37 s  ClockTime = 899 s

Time = 156

DILUPBiCGStab:  Solving for Ux, Initial residual = 0.00014061, Final residual = 1.98571e-07, No Iterations 1
DILUPBiCGStab:  Solving for Uy, Initial residual = 0.000988859, Final residual = 9.72724e-07, No Iterations 1
DILUPBiCGStab:  Solving for Uz, Initial residual = 0.00134949, Final residual = 1.4219e-06, No Iterations 1
DILUPBiCGStab:  Solving for T, Initial residual = 0.001429, Final residual = 4.07851e-06, No Iterations 1
DICPCG:  Solving for p_rgh, Initial residual = 0.000421653, Final residual = 3.65533e-06, No Iterations 139
time step continuity errors : sum local = 3.67986e-10, global = -4.74369e-13, cumulative = 3.80687e-07
DILUPBiCGStab:  Solving for epsilon, Initial residual = 1.05386e-05, Final residual = 3.62992e-07, No Iterations 1
DILUPBiCGStab:  Solving for k, Initial residual = 0.000226265, Final residual = 2.61532e-06, No Iterations 1
ExecutionTime = 912.18 s  ClockTime = 914 s

Time = 156.1

DILUPBiCGStab:  Solving for Ux, Initial residual = 0.000140501, Final residual = 1.98401e-07, No Iterations 1
DILUPBiCGStab:  Solving for Uy, Initial residual = 0.000988602, Final residual = 9.72208e-07, No Iterations 1
DILUPBiCGStab:  Solving for Uz, Initial residual = 0.00134951, Final residual = 1.42287e-06, No Iterations 1
DILUPBiCGStab:  Solving for T, Initial residual = 0.00142826, Final residual = 4.07496e-06, No Iterations 1
DICPCG:  Solving for p_rgh, Initial residual = 0.000421915, Final residual = 3.64804e-06, No Iterations 139
time step continuity errors : sum local = 3.67092e-10, global = -4.69971e-13, cumulative = 3.80687e-07
DILUPBiCGStab:  Solving for epsilon, Initial residual = 1.05372e-05, Final residual = 3.62899e-07, No Iterations 1
DILUPBiCGStab:  Solving for k, Initial residual = 0.000226409, Final residual = 2.61529e-06, No Iterations 1
ExecutionTime = 927.63 s  ClockTime = 930 s

Time = 156.2

DILUPBiCGStab:  Solving for Ux, Initial residual = 0.000140392, Final residual = 1.98232e-07, No Iterations 1
DILUPBiCGStab:  Solving for Uy, Initial residual = 0.000988344, Final residual = 9.71697e-07, No Iterations 1
DILUPBiCGStab:  Solving for Uz, Initial residual = 0.00134941, Final residual = 1.42113e-06, No Iterations 1
DILUPBiCGStab:  Solving for T, Initial residual = 0.0014275, Final residual = 4.07135e-06, No Iterations 1
DICPCG:  Solving for p_rgh, Initial residual = 0.000423383, Final residual = 3.66514e-06, No Iterations 139
time step continuity errors : sum local = 3.68652e-10, global = -5.24836e-13, cumulative = 3.80686e-07
DILUPBiCGStab:  Solving for epsilon, Initial residual = 1.05357e-05, Final residual = 3.62804e-07, No Iterations 1
DILUPBiCGStab:  Solving for k, Initial residual = 0.000226552, Final residual = 2.61526e-06, No Iterations 1
ExecutionTime = 942.62 s  ClockTime = 945 s

Time = 156.3

DILUPBiCGStab:  Solving for Ux, Initial residual = 0.000140283, Final residual = 1.98062e-07, No Iterations 1
DILUPBiCGStab:  Solving for Uy, Initial residual = 0.000988087, Final residual = 9.71201e-07, No Iterations 1
DILUPBiCGStab:  Solving for Uz, Initial residual = 0.00134935, Final residual = 1.41962e-06, No Iterations 1
DILUPBiCGStab:  Solving for T, Initial residual = 0.00142671, Final residual = 4.0676e-06, No Iterations 1
DICPCG:  Solving for p_rgh, Initial residual = 0.000425188, Final residual = 3.6296e-06, No Iterations 139
time step continuity errors : sum local = 3.64919e-10, global = -6.16626e-13, cumulative = 3.80686e-07
DILUPBiCGStab:  Solving for epsilon, Initial residual = 1.05343e-05, Final residual = 3.6271e-07, No Iterations 1
DILUPBiCGStab:  Solving for k, Initial residual = 0.000226695, Final residual = 2.61522e-06, No Iterations 1
ExecutionTime = 957.39 s  ClockTime = 959 s

Time = 156.4

DILUPBiCGStab:  Solving for Ux, Initial residual = 0.000140175, Final residual = 1.97893e-07, No Iterations 1
DILUPBiCGStab:  Solving for Uy, Initial residual = 0.00098783, Final residual = 9.70716e-07, No Iterations 1
DILUPBiCGStab:  Solving for Uz, Initial residual = 0.00134928, Final residual = 1.41818e-06, No Iterations 1
DILUPBiCGStab:  Solving for T, Initial residual = 0.00142589, Final residual = 4.06378e-06, No Iterations 1
DICPCG:  Solving for p_rgh, Initial residual = 0.00042328, Final residual = 3.66144e-06, No Iterations 139
time step continuity errors : sum local = 3.67963e-10, global = -6.24142e-13, cumulative = 3.80685e-07
DILUPBiCGStab:  Solving for epsilon, Initial residual = 1.05329e-05, Final residual = 3.62616e-07, No Iterations 1
DILUPBiCGStab:  Solving for k, Initial residual = 0.000226837, Final residual = 2.61517e-06, No Iterations 1
ExecutionTime = 972.11 s  ClockTime = 974 s

Time = 156.5

DILUPBiCGStab:  Solving for Ux, Initial residual = 0.000140066, Final residual = 1.97724e-07, No Iterations 1
DILUPBiCGStab:  Solving for Uy, Initial residual = 0.000987571, Final residual = 9.7024e-07, No Iterations 1
DILUPBiCGStab:  Solving for Uz, Initial residual = 0.00134927, Final residual = 1.4189e-06, No Iterations 1
DILUPBiCGStab:  Solving for T, Initial residual = 0.00142506, Final residual = 4.0599e-06, No Iterations 1
DICPCG:  Solving for p_rgh, Initial residual = 0.000419269, Final residual = 3.63421e-06, No Iterations 139
time step continuity errors : sum local = 3.6507e-10, global = -6.3929e-13, cumulative = 3.80685e-07
DILUPBiCGStab:  Solving for epsilon, Initial residual = 1.05315e-05, Final residual = 3.62521e-07, No Iterations 1
DILUPBiCGStab:  Solving for k, Initial residual = 0.000226979, Final residual = 2.61512e-06, No Iterations 1
ExecutionTime = 987.1 s  ClockTime = 989 s

Time = 156.6

DILUPBiCGStab:  Solving for Ux, Initial residual = 0.000139958, Final residual = 1.97556e-07, No Iterations 1
DILUPBiCGStab:  Solving for Uy, Initial residual = 0.000987312, Final residual = 9.69776e-07, No Iterations 1
DILUPBiCGStab:  Solving for Uz, Initial residual = 0.00134916, Final residual = 1.41721e-06, No Iterations 1
DILUPBiCGStab:  Solving for T, Initial residual = 0.00142419, Final residual = 4.05599e-06, No Iterations 1
DICPCG:  Solving for p_rgh, Initial residual = 0.000418408, Final residual = 3.63665e-06, No Iterations 139
time step continuity errors : sum local = 3.65159e-10, global = -7.01407e-13, cumulative = 3.80684e-07
DILUPBiCGStab:  Solving for epsilon, Initial residual = 1.05301e-05, Final residual = 3.62424e-07, No Iterations 1
DILUPBiCGStab:  Solving for k, Initial residual = 0.000227121, Final residual = 2.61507e-06, No Iterations 1
ExecutionTime = 1002.01 s  ClockTime = 1004 s

Time = 156.7

DILUPBiCGStab:  Solving for Ux, Initial residual = 0.000139849, Final residual = 1.97387e-07, No Iterations 1
DILUPBiCGStab:  Solving for Uy, Initial residual = 0.000987054, Final residual = 9.69321e-07, No Iterations 1
DILUPBiCGStab:  Solving for Uz, Initial residual = 0.0013491, Final residual = 1.41582e-06, No Iterations 1
DILUPBiCGStab:  Solving for T, Initial residual = 0.00142331, Final residual = 4.05198e-06, No Iterations 1
DICPCG:  Solving for p_rgh, Initial residual = 0.000417836, Final residual = 3.61871e-06, No Iterations 139
time step continuity errors : sum local = 3.63201e-10, global = -7.74885e-13, cumulative = 3.80683e-07
DILUPBiCGStab:  Solving for epsilon, Initial residual = 1.05286e-05, Final residual = 3.62328e-07, No Iterations 1
DILUPBiCGStab:  Solving for k, Initial residual = 0.000227262, Final residual = 2.615e-06, No Iterations 1
ExecutionTime = 1017.27 s  ClockTime = 1019 s

Time = 156.8

DILUPBiCGStab:  Solving for Ux, Initial residual = 0.000139741, Final residual = 1.97219e-07, No Iterations 1
DILUPBiCGStab:  Solving for Uy, Initial residual = 0.000986794, Final residual = 9.68878e-07, No Iterations 1
DILUPBiCGStab:  Solving for Uz, Initial residual = 0.00134905, Final residual = 1.41459e-06, No Iterations 1
DILUPBiCGStab:  Solving for T, Initial residual = 0.00142241, Final residual = 4.04797e-06, No Iterations 1
DICPCG:  Solving for p_rgh, Initial residual = 0.000417043, Final residual = 3.64691e-06, No Iterations 139
time step continuity errors : sum local = 3.65877e-10, global = -7.99841e-13, cumulative = 3.80682e-07
DILUPBiCGStab:  Solving for epsilon, Initial residual = 1.05272e-05, Final residual = 3.62231e-07, No Iterations 1
DILUPBiCGStab:  Solving for k, Initial residual = 0.000227403, Final residual = 2.61494e-06, No Iterations 1
ExecutionTime = 1032.1 s  ClockTime = 1034 s

Time = 156.9

DILUPBiCGStab:  Solving for Ux, Initial residual = 0.000139633, Final residual = 1.97051e-07, No Iterations 1
DILUPBiCGStab:  Solving for Uy, Initial residual = 0.000986531, Final residual = 9.68447e-07, No Iterations 1
DILUPBiCGStab:  Solving for Uz, Initial residual = 0.00134905, Final residual = 1.41527e-06, No Iterations 1
DILUPBiCGStab:  Solving for T, Initial residual = 0.00142148, Final residual = 4.04394e-06, No Iterations 1
DICPCG:  Solving for p_rgh, Initial residual = 0.000415537, Final residual = 3.65251e-06, No Iterations 139
time step continuity errors : sum local = 3.66283e-10, global = -8.51766e-13, cumulative = 3.80681e-07
DILUPBiCGStab:  Solving for epsilon, Initial residual = 1.05258e-05, Final residual = 3.62134e-07, No Iterations 1
DILUPBiCGStab:  Solving for k, Initial residual = 0.000227544, Final residual = 2.61487e-06, No Iterations 1
ExecutionTime = 1046.95 s  ClockTime = 1049 s

Time = 157

DILUPBiCGStab:  Solving for Ux, Initial residual = 0.000139525, Final residual = 1.96883e-07, No Iterations 1
DILUPBiCGStab:  Solving for Uy, Initial residual = 0.000986272, Final residual = 9.68025e-07, No Iterations 1
DILUPBiCGStab:  Solving for Uz, Initial residual = 0.00134898, Final residual = 1.41394e-06, No Iterations 1
DILUPBiCGStab:  Solving for T, Initial residual = 0.00142054, Final residual = 4.03994e-06, No Iterations 1
DICPCG:  Solving for p_rgh, Initial residual = 0.000416208, Final residual = 3.65878e-06, No Iterations 139
time step continuity errors : sum local = 3.66756e-10, global = -9.07206e-13, cumulative = 3.80681e-07
DILUPBiCGStab:  Solving for epsilon, Initial residual = 1.05244e-05, Final residual = 3.62038e-07, No Iterations 1
DILUPBiCGStab:  Solving for k, Initial residual = 0.000227684, Final residual = 2.61479e-06, No Iterations 1
ExecutionTime = 1063.58 s  ClockTime = 1066 s

Time = 157.1

DILUPBiCGStab:  Solving for Ux, Initial residual = 0.000139417, Final residual = 1.96715e-07, No Iterations 1
DILUPBiCGStab:  Solving for Uy, Initial residual = 0.00098601, Final residual = 9.67608e-07, No Iterations 1
DILUPBiCGStab:  Solving for Uz, Initial residual = 0.00134895, Final residual = 1.41311e-06, No Iterations 1
DILUPBiCGStab:  Solving for T, Initial residual = 0.00141958, Final residual = 4.03597e-06, No Iterations 1
DICPCG:  Solving for p_rgh, Initial residual = 0.00041974, Final residual = 3.65026e-06, No Iterations 139
time step continuity errors : sum local = 3.65748e-10, global = -9.74877e-13, cumulative = 3.8068e-07
DILUPBiCGStab:  Solving for epsilon, Initial residual = 1.05229e-05, Final residual = 3.6194e-07, No Iterations 1
DILUPBiCGStab:  Solving for k, Initial residual = 0.000227824, Final residual = 2.61471e-06, No Iterations 1
ExecutionTime = 1081.2 s  ClockTime = 1084 s

Time = 157.2

DILUPBiCGStab:  Solving for Ux, Initial residual = 0.000139309, Final residual = 1.96547e-07, No Iterations 1
DILUPBiCGStab:  Solving for Uy, Initial residual = 0.000985745, Final residual = 9.67197e-07, No Iterations 1
DILUPBiCGStab:  Solving for Uz, Initial residual = 0.00134896, Final residual = 1.41354e-06, No Iterations 1
DILUPBiCGStab:  Solving for T, Initial residual = 0.00141862, Final residual = 4.03204e-06, No Iterations 1
DICPCG:  Solving for p_rgh, Initial residual = 0.000419387, Final residual = 3.60985e-06, No Iterations 139
time step continuity errors : sum local = 3.61546e-10, global = -1.01352e-12, cumulative = 3.80679e-07
DILUPBiCGStab:  Solving for epsilon, Initial residual = 1.05215e-05, Final residual = 3.61842e-07, No Iterations 1
DILUPBiCGStab:  Solving for k, Initial residual = 0.000227963, Final residual = 2.61463e-06, No Iterations 1
ExecutionTime = 1097.86 s  ClockTime = 1100 s

Time = 157.3

DILUPBiCGStab:  Solving for Ux, Initial residual = 0.000139202, Final residual = 1.96379e-07, No Iterations 1
DILUPBiCGStab:  Solving for Uy, Initial residual = 0.000985481, Final residual = 9.66794e-07, No Iterations 1
DILUPBiCGStab:  Solving for Uz, Initial residual = 0.00134895, Final residual = 1.41424e-06, No Iterations 1
DILUPBiCGStab:  Solving for T, Initial residual = 0.00141766, Final residual = 4.02814e-06, No Iterations 1
DICPCG:  Solving for p_rgh, Initial residual = 0.000415181, Final residual = 3.6043e-06, No Iterations 139
time step continuity errors : sum local = 3.60838e-10, global = -1.05843e-12, cumulative = 3.80677e-07
DILUPBiCGStab:  Solving for epsilon, Initial residual = 1.052e-05, Final residual = 3.61744e-07, No Iterations 1
DILUPBiCGStab:  Solving for k, Initial residual = 0.000228103, Final residual = 2.61453e-06, No Iterations 1
ExecutionTime = 1114.05 s  ClockTime = 1116 s

Time = 157.4

DILUPBiCGStab:  Solving for Ux, Initial residual = 0.000139094, Final residual = 1.96212e-07, No Iterations 1
DILUPBiCGStab:  Solving for Uy, Initial residual = 0.000985219, Final residual = 9.66395e-07, No Iterations 1
DILUPBiCGStab:  Solving for Uz, Initial residual = 0.00134892, Final residual = 1.41447e-06, No Iterations 1
DILUPBiCGStab:  Solving for T, Initial residual = 0.00141668, Final residual = 4.02431e-06, No Iterations 1
DICPCG:  Solving for p_rgh, Initial residual = 0.00041577, Final residual = 3.63243e-06, No Iterations 139
time step continuity errors : sum local = 3.63503e-10, global = -1.06064e-12, cumulative = 3.80676e-07
DILUPBiCGStab:  Solving for epsilon, Initial residual = 1.05186e-05, Final residual = 3.61645e-07, No Iterations 1
DILUPBiCGStab:  Solving for k, Initial residual = 0.000228242, Final residual = 2.61443e-06, No Iterations 1
ExecutionTime = 1130.5 s  ClockTime = 1133 s

Time = 157.5

DILUPBiCGStab:  Solving for Ux, Initial residual = 0.000138986, Final residual = 1.96045e-07, No Iterations 1
DILUPBiCGStab:  Solving for Uy, Initial residual = 0.000984956, Final residual = 9.66001e-07, No Iterations 1
DILUPBiCGStab:  Solving for Uz, Initial residual = 0.00134884, Final residual = 1.41321e-06, No Iterations 1
DILUPBiCGStab:  Solving for T, Initial residual = 0.00141569, Final residual = 4.02054e-06, No Iterations 1
DICPCG:  Solving for p_rgh, Initial residual = 0.00041699, Final residual = 3.65833e-06, No Iterations 139
time step continuity errors : sum local = 3.65941e-10, global = -1.10619e-12, cumulative = 3.80675e-07
DILUPBiCGStab:  Solving for epsilon, Initial residual = 1.05171e-05, Final residual = 3.61548e-07, No Iterations 1
DILUPBiCGStab:  Solving for k, Initial residual = 0.00022838, Final residual = 2.61433e-06, No Iterations 1
ExecutionTime = 1145.37 s  ClockTime = 1148 s

Time = 157.6

DILUPBiCGStab:  Solving for Ux, Initial residual = 0.000138879, Final residual = 1.95878e-07, No Iterations 1
DILUPBiCGStab:  Solving for Uy, Initial residual = 0.000984693, Final residual = 9.6561e-07, No Iterations 1
DILUPBiCGStab:  Solving for Uz, Initial residual = 0.00134883, Final residual = 1.41328e-06, No Iterations 1
DILUPBiCGStab:  Solving for T, Initial residual = 0.0014147, Final residual = 4.01684e-06, No Iterations 1
DICPCG:  Solving for p_rgh, Initial residual = 0.000419325, Final residual = 3.63464e-06, No Iterations 139
time step continuity errors : sum local = 3.63418e-10, global = -1.18163e-12, cumulative = 3.80674e-07
DILUPBiCGStab:  Solving for epsilon, Initial residual = 1.05155e-05, Final residual = 3.6145e-07, No Iterations 1
DILUPBiCGStab:  Solving for k, Initial residual = 0.000228518, Final residual = 2.61422e-06, No Iterations 1
ExecutionTime = 1160.07 s  ClockTime = 1163 s

Time = 157.7

DILUPBiCGStab:  Solving for Ux, Initial residual = 0.000138772, Final residual = 1.95711e-07, No Iterations 1
DILUPBiCGStab:  Solving for Uy, Initial residual = 0.000984429, Final residual = 9.65222e-07, No Iterations 1
DILUPBiCGStab:  Solving for Uz, Initial residual = 0.00134887, Final residual = 1.41296e-06, No Iterations 1
DILUPBiCGStab:  Solving for T, Initial residual = 0.00141371, Final residual = 4.01329e-06, No Iterations 1
DICPCG:  Solving for p_rgh, Initial residual = 0.000420509, Final residual = 3.63392e-06, No Iterations 139
time step continuity errors : sum local = 3.63193e-10, global = -1.21903e-12, cumulative = 3.80673e-07
DILUPBiCGStab:  Solving for epsilon, Initial residual = 1.0514e-05, Final residual = 3.61352e-07, No Iterations 1
DILUPBiCGStab:  Solving for k, Initial residual = 0.000228656, Final residual = 2.6141e-06, No Iterations 1
ExecutionTime = 1177.65 s  ClockTime = 1181 s

Time = 157.8

DILUPBiCGStab:  Solving for Ux, Initial residual = 0.000138665, Final residual = 1.95544e-07, No Iterations 1
[...]
DILUPBiCGStab:  Solving for Uy, Initial residual = 7.64659e-05, Final residual = 4.76449e-08, No Iterations 1
DILUPBiCGStab:  Solving for Uz, Initial residual = 0.00177338, Final residual = 4.64549e-06, No Iterations 1
DILUPBiCGStab:  Solving for T, Initial residual = 0.00698194, Final residual = 9.7069e-05, No Iterations 1
DICPCG:  Solving for p_rgh, Initial residual = 7.85835e-05, Final residual = 6.67121e-07, No Iterations 132
time step continuity errors : sum local = 1.2162e-11, global = -9.00364e-14, cumulative = 4.26731e-07
DILUPBiCGStab:  Solving for epsilon, Initial residual = 3.47382e-06, Final residual = 3.47382e-06, No Iterations 0
DILUPBiCGStab:  Solving for k, Initial residual = 9.71681e-06, Final residual = 9.71681e-06, No Iterations 0
ExecutionTime = 48313.2 s  ClockTime = 172888 s

Time = 561.1

DILUPBiCGStab:  Solving for Ux, Initial residual = 3.20018e-07, Final residual = 3.20018e-07, No Iterations 0
DILUPBiCGStab:  Solving for Uy, Initial residual = 7.62707e-05, Final residual = 4.74566e-08, No Iterations 1
DILUPBiCGStab:  Solving for Uz, Initial residual = 0.00176323, Final residual = 4.54375e-06, No Iterations 1
DILUPBiCGStab:  Solving for T, Initial residual = 0.00672142, Final residual = 8.76176e-05, No Iterations 1
DICPCG:  Solving for p_rgh, Initial residual = 7.81469e-05, Final residual = 6.58356e-07, No Iterations 132
time step continuity errors : sum local = 1.20013e-11, global = -8.52365e-14, cumulative = 4.26731e-07
DILUPBiCGStab:  Solving for epsilon, Initial residual = 3.474e-06, Final residual = 3.474e-06, No Iterations 0
DILUPBiCGStab:  Solving for k, Initial residual = 9.72634e-06, Final residual = 9.72634e-06, No Iterations 0
ExecutionTime = 48321.7 s  ClockTime = 172896 s

Time = 561.2

DILUPBiCGStab:  Solving for Ux, Initial residual = 3.19224e-07, Final residual = 3.19224e-07, No Iterations 0
DILUPBiCGStab:  Solving for Uy, Initial residual = 7.60763e-05, Final residual = 4.72695e-08, No Iterations 1
DILUPBiCGStab:  Solving for Uz, Initial residual = 0.00175263, Final residual = 4.44383e-06, No Iterations 1
DILUPBiCGStab:  Solving for T, Initial residual = 0.00656145, Final residual = 8.0976e-05, No Iterations 1
DICPCG:  Solving for p_rgh, Initial residual = 7.76622e-05, Final residual = 6.51746e-07, No Iterations 132
time step continuity errors : sum local = 1.188e-11, global = -9.0218e-14, cumulative = 4.2673e-07
DILUPBiCGStab:  Solving for epsilon, Initial residual = 3.47421e-06, Final residual = 3.47421e-06, No Iterations 0
DILUPBiCGStab:  Solving for k, Initial residual = 9.73605e-06, Final residual = 9.73605e-06, No Iterations 0
ExecutionTime = 48330.2 s  ClockTime = 172905 s

Time = 561.3

DILUPBiCGStab:  Solving for Ux, Initial residual = 3.18433e-07, Final residual = 3.18433e-07, No Iterations 0
DILUPBiCGStab:  Solving for Uy, Initial residual = 7.58828e-05, Final residual = 4.70833e-08, No Iterations 1
DILUPBiCGStab:  Solving for Uz, Initial residual = 0.00174284, Final residual = 4.34738e-06, No Iterations 1
DILUPBiCGStab:  Solving for T, Initial residual = 0.00644165, Final residual = 7.62977e-05, No Iterations 1
DICPCG:  Solving for p_rgh, Initial residual = 7.69867e-05, Final residual = 6.42795e-07, No Iterations 132
time step continuity errors : sum local = 1.1716e-11, global = -8.67571e-14, cumulative = 4.2673e-07
DILUPBiCGStab:  Solving for epsilon, Initial residual = 3.47444e-06, Final residual = 3.47444e-06, No Iterations 0
DILUPBiCGStab:  Solving for k, Initial residual = 9.74593e-06, Final residual = 9.74593e-06, No Iterations 0
ExecutionTime = 48338.7 s  ClockTime = 172913 s

Time = 561.4

DILUPBiCGStab:  Solving for Ux, Initial residual = 3.17645e-07, Final residual = 3.17645e-07, No Iterations 0
DILUPBiCGStab:  Solving for Uy, Initial residual = 7.56898e-05, Final residual = 4.68982e-08, No Iterations 1
DILUPBiCGStab:  Solving for Uz, Initial residual = 0.00173259, Final residual = 4.25204e-06, No Iterations 1
DILUPBiCGStab:  Solving for T, Initial residual = 0.00634714, Final residual = 7.23419e-05, No Iterations 1
DICPCG:  Solving for p_rgh, Initial residual = 7.63769e-05, Final residual = 6.41314e-07, No Iterations 132
time step continuity errors : sum local = 1.16881e-11, global = -8.89834e-14, cumulative = 4.2673e-07
DILUPBiCGStab:  Solving for epsilon, Initial residual = 3.47469e-06, Final residual = 3.47469e-06, No Iterations 0
DILUPBiCGStab:  Solving for k, Initial residual = 9.75596e-06, Final residual = 9.75596e-06, No Iterations 0
ExecutionTime = 48347.4 s  ClockTime = 172922 s

Time = 561.5

DILUPBiCGStab:  Solving for Ux, Initial residual = 3.16861e-07, Final residual = 3.16861e-07, No Iterations 0
DILUPBiCGStab:  Solving for Uy, Initial residual = 7.54975e-05, Final residual = 4.67153e-08, No Iterations 1
DILUPBiCGStab:  Solving for Uz, Initial residual = 0.00172302, Final residual = 4.15916e-06, No Iterations 1
DILUPBiCGStab:  Solving for T, Initial residual = 0.00626403, Final residual = 6.95341e-05, No Iterations 1
DICPCG:  Solving for p_rgh, Initial residual = 7.62175e-05, Final residual = 6.41115e-07, No Iterations 132
time step continuity errors : sum local = 1.16836e-11, global = -8.81684e-14, cumulative = 4.2673e-07
DILUPBiCGStab:  Solving for epsilon, Initial residual = 3.47497e-06, Final residual = 3.47497e-06, No Iterations 0
DILUPBiCGStab:  Solving for k, Initial residual = 9.76617e-06, Final residual = 9.76617e-06, No Iterations 0
ExecutionTime = 48355.9 s  ClockTime = 172930 s

Time = 561.6

DILUPBiCGStab:  Solving for Ux, Initial residual = 3.1608e-07, Final residual = 3.1608e-07, No Iterations 0
DILUPBiCGStab:  Solving for Uy, Initial residual = 7.53058e-05, Final residual = 4.65324e-08, No Iterations 1
DILUPBiCGStab:  Solving for Uz, Initial residual = 0.00171301, Final residual = 4.06739e-06, No Iterations 1
DILUPBiCGStab:  Solving for T, Initial residual = 0.00620641, Final residual = 6.76388e-05, No Iterations 1
DICPCG:  Solving for p_rgh, Initial residual = 7.58309e-05, Final residual = 6.37949e-07, No Iterations 132
time step continuity errors : sum local = 1.16251e-11, global = -8.88188e-14, cumulative = 4.2673e-07
DILUPBiCGStab:  Solving for epsilon, Initial residual = 3.47527e-06, Final residual = 3.47527e-06, No Iterations 0
DILUPBiCGStab:  Solving for k, Initial residual = 9.77653e-06, Final residual = 9.77653e-06, No Iterations 0
ExecutionTime = 48364.5 s  ClockTime = 172939 s

Time = 561.7

DILUPBiCGStab:  Solving for Ux, Initial residual = 3.15301e-07, Final residual = 3.15301e-07, No Iterations 0
DILUPBiCGStab:  Solving for Uy, Initial residual = 7.51148e-05, Final residual = 4.63515e-08, No Iterations 1
DILUPBiCGStab:  Solving for Uz, Initial residual = 0.00170364, Final residual = 3.97766e-06, No Iterations 1
DILUPBiCGStab:  Solving for T, Initial residual = 0.00612934, Final residual = 6.5115e-05, No Iterations 1
DICPCG:  Solving for p_rgh, Initial residual = 7.53008e-05, Final residual = 6.28736e-07, No Iterations 132
time step continuity errors : sum local = 1.14564e-11, global = -8.83722e-14, cumulative = 4.2673e-07
DILUPBiCGStab:  Solving for epsilon, Initial residual = 3.47559e-06, Final residual = 3.47559e-06, No Iterations 0
DILUPBiCGStab:  Solving for k, Initial residual = 9.78704e-06, Final residual = 9.78704e-06, No Iterations 0
ExecutionTime = 48373 s  ClockTime = 172948 s

Time = 561.8

DILUPBiCGStab:  Solving for Ux, Initial residual = 3.14526e-07, Final residual = 3.14526e-07, No Iterations 0
DILUPBiCGStab:  Solving for Uy, Initial residual = 7.49245e-05, Final residual = 4.61721e-08, No Iterations 1
DILUPBiCGStab:  Solving for Uz, Initial residual = 0.00169383, Final residual = 3.88854e-06, No Iterations 1
DILUPBiCGStab:  Solving for T, Initial residual = 0.00607141, Final residual = 6.29511e-05, No Iterations 1
DICPCG:  Solving for p_rgh, Initial residual = 7.4609e-05, Final residual = 6.25722e-07, No Iterations 132
time step continuity errors : sum local = 1.14007e-11, global = -8.82019e-14, cumulative = 4.2673e-07
DILUPBiCGStab:  Solving for epsilon, Initial residual = 3.47594e-06, Final residual = 3.47594e-06, No Iterations 0
DILUPBiCGStab:  Solving for k, Initial residual = 9.7977e-06, Final residual = 9.7977e-06, No Iterations 0
ExecutionTime = 48381.5 s  ClockTime = 172956 s

Time = 561.9

DILUPBiCGStab:  Solving for Ux, Initial residual = 3.13753e-07, Final residual = 3.13753e-07, No Iterations 0
DILUPBiCGStab:  Solving for Uy, Initial residual = 7.47351e-05, Final residual = 4.59951e-08, No Iterations 1
DILUPBiCGStab:  Solving for Uz, Initial residual = 0.00168482, Final residual = 3.80212e-06, No Iterations 1
DILUPBiCGStab:  Solving for T, Initial residual = 0.00601462, Final residual = 6.11688e-05, No Iterations 1
DICPCG:  Solving for p_rgh, Initial residual = 7.48192e-05, Final residual = 7.46307e-07, No Iterations 131
time step continuity errors : sum local = 1.35968e-11, global = -9.1714e-14, cumulative = 4.2673e-07
DILUPBiCGStab:  Solving for epsilon, Initial residual = 3.47631e-06, Final residual = 3.47631e-06, No Iterations 0
DILUPBiCGStab:  Solving for k, Initial residual = 9.80852e-06, Final residual = 9.80852e-06, No Iterations 0
ExecutionTime = 48389.9 s  ClockTime = 172965 s

Time = 562

DILUPBiCGStab:  Solving for Ux, Initial residual = 3.12984e-07, Final residual = 3.12984e-07, No Iterations 0
DILUPBiCGStab:  Solving for Uy, Initial residual = 7.45461e-05, Final residual = 4.58199e-08, No Iterations 1
DILUPBiCGStab:  Solving for Uz, Initial residual = 0.00167542, Final residual = 3.71781e-06, No Iterations 1
DILUPBiCGStab:  Solving for T, Initial residual = 0.00645219, Final residual = 8.74178e-05, No Iterations 1
DICPCG:  Solving for p_rgh, Initial residual = 7.47088e-05, Final residual = 7.33958e-07, No Iterations 131
time step continuity errors : sum local = 1.33709e-11, global = -8.69988e-14, cumulative = 4.2673e-07
DILUPBiCGStab:  Solving for epsilon, Initial residual = 3.47669e-06, Final residual = 3.47669e-06, No Iterations 0
DILUPBiCGStab:  Solving for k, Initial residual = 9.81947e-06, Final residual = 9.81947e-06, No Iterations 0
ExecutionTime = 48398.4 s  ClockTime = 172973 s

Time = 562.1

DILUPBiCGStab:  Solving for Ux, Initial residual = 3.12216e-07, Final residual = 3.12216e-07, No Iterations 0
DILUPBiCGStab:  Solving for Uy, Initial residual = 7.43586e-05, Final residual = 4.56482e-08, No Iterations 1
DILUPBiCGStab:  Solving for Uz, Initial residual = 0.0016672, Final residual = 3.63595e-06, No Iterations 1
DILUPBiCGStab:  Solving for T, Initial residual = 0.00620838, Final residual = 7.7059e-05, No Iterations 1
DICPCG:  Solving for p_rgh, Initial residual = 7.36835e-05, Final residual = 7.36095e-07, No Iterations 131
time step continuity errors : sum local = 1.34089e-11, global = -8.72802e-14, cumulative = 4.2673e-07
DILUPBiCGStab:  Solving for epsilon, Initial residual = 3.47709e-06, Final residual = 3.47709e-06, No Iterations 0
DILUPBiCGStab:  Solving for k, Initial residual = 9.83057e-06, Final residual = 9.83057e-06, No Iterations 0
ExecutionTime = 48406.8 s  ClockTime = 172981 s

Time = 562.2

DILUPBiCGStab:  Solving for Ux, Initial residual = 3.11452e-07, Final residual = 3.11452e-07, No Iterations 0
DILUPBiCGStab:  Solving for Uy, Initial residual = 7.41714e-05, Final residual = 4.54778e-08, No Iterations 1
DILUPBiCGStab:  Solving for Uz, Initial residual = 0.00165855, Final residual = 3.55615e-06, No Iterations 1
DILUPBiCGStab:  Solving for T, Initial residual = 0.00607209, Final residual = 7.04137e-05, No Iterations 1
DICPCG:  Solving for p_rgh, Initial residual = 7.27569e-05, Final residual = 6.14018e-07, No Iterations 132
time step continuity errors : sum local = 1.11843e-11, global = -7.745e-14, cumulative = 4.2673e-07
DILUPBiCGStab:  Solving for epsilon, Initial residual = 3.4775e-06, Final residual = 3.4775e-06, No Iterations 0
DILUPBiCGStab:  Solving for k, Initial residual = 9.8418e-06, Final residual = 9.8418e-06, No Iterations 0
ExecutionTime = 48415.4 s  ClockTime = 172990 s

Time = 562.3

DILUPBiCGStab:  Solving for Ux, Initial residual = 3.10689e-07, Final residual = 3.10689e-07, No Iterations 0
DILUPBiCGStab:  Solving for Uy, Initial residual = 7.39853e-05, Final residual = 4.53088e-08, No Iterations 1
DILUPBiCGStab:  Solving for Uz, Initial residual = 0.0016511, Final residual = 3.48008e-06, No Iterations 1
DILUPBiCGStab:  Solving for T, Initial residual = 0.00608396, Final residual = 7.03439e-05, No Iterations 1
DICPCG:  Solving for p_rgh, Initial residual = 7.21516e-05, Final residual = 6.20713e-07, No Iterations 132
time step continuity errors : sum local = 1.13055e-11, global = -8.28602e-14, cumulative = 4.2673e-07
DILUPBiCGStab:  Solving for epsilon, Initial residual = 3.47793e-06, Final residual = 3.47793e-06, No Iterations 0
DILUPBiCGStab:  Solving for k, Initial residual = 9.85317e-06, Final residual = 9.85317e-06, No Iterations 0
ExecutionTime = 48423.9 s  ClockTime = 172999 s

Time = 562.4

DILUPBiCGStab:  Solving for Ux, Initial residual = 3.0993e-07, Final residual = 3.0993e-07, No Iterations 0
DILUPBiCGStab:  Solving for Uy, Initial residual = 7.37989e-05, Final residual = 4.51403e-08, No Iterations 1
DILUPBiCGStab:  Solving for Uz, Initial residual = 0.00164277, Final residual = 3.40482e-06, No Iterations 1
DILUPBiCGStab:  Solving for T, Initial residual = 0.00590784, Final residual = 6.33992e-05, No Iterations 1
DICPCG:  Solving for p_rgh, Initial residual = 7.18277e-05, Final residual = 6.08761e-07, No Iterations 132
time step continuity errors : sum local = 1.1087e-11, global = -8.54921e-14, cumulative = 4.26729e-07
DILUPBiCGStab:  Solving for epsilon, Initial residual = 3.47837e-06, Final residual = 3.47837e-06, No Iterations 0
DILUPBiCGStab:  Solving for k, Initial residual = 9.86468e-06, Final residual = 9.86468e-06, No Iterations 0
ExecutionTime = 48432.4 s  ClockTime = 173007 s

Time = 562.5

DILUPBiCGStab:  Solving for Ux, Initial residual = 3.09172e-07, Final residual = 3.09172e-07, No Iterations 0
DILUPBiCGStab:  Solving for Uy, Initial residual = 7.36135e-05, Final residual = 4.49751e-08, No Iterations 1
DILUPBiCGStab:  Solving for Uz, Initial residual = 0.00163551, Final residual = 3.33278e-06, No Iterations 1
DILUPBiCGStab:  Solving for T, Initial residual = 0.00580326, Final residual = 5.88291e-05, No Iterations 1
DICPCG:  Solving for p_rgh, Initial residual = 7.14467e-05, Final residual = 6.02455e-07, No Iterations 132
time step continuity errors : sum local = 1.09714e-11, global = -8.59674e-14, cumulative = 4.26729e-07
DILUPBiCGStab:  Solving for epsilon, Initial residual = 3.47883e-06, Final residual = 3.47883e-06, No Iterations 0
DILUPBiCGStab:  Solving for k, Initial residual = 9.87633e-06, Final residual = 9.87633e-06, No Iterations 0
ExecutionTime = 48440.9 s  ClockTime = 173016 s

Time = 562.6

DILUPBiCGStab:  Solving for Ux, Initial residual = 3.08418e-07, Final residual = 3.08418e-07, No Iterations 0
DILUPBiCGStab:  Solving for Uy, Initial residual = 7.34289e-05, Final residual = 4.4812e-08, No Iterations 1
DILUPBiCGStab:  Solving for Uz, Initial residual = 0.00162785, Final residual = 3.26334e-06, No Iterations 1
DILUPBiCGStab:  Solving for T, Initial residual = 0.00572831, Final residual = 5.55535e-05, No Iterations 1
DICPCG:  Solving for p_rgh, Initial residual = 7.10751e-05, Final residual = 5.95707e-07, No Iterations 132
time step continuity errors : sum local = 1.08478e-11, global = -8.54071e-14, cumulative = 4.26729e-07
DILUPBiCGStab:  Solving for epsilon, Initial residual = 3.47931e-06, Final residual = 3.47931e-06, No Iterations 0
DILUPBiCGStab:  Solving for k, Initial residual = 9.8881e-06, Final residual = 9.8881e-06, No Iterations 0
ExecutionTime = 48449.5 s  ClockTime = 173024 s

Time = 562.7

DILUPBiCGStab:  Solving for Ux, Initial residual = 3.07665e-07, Final residual = 3.07665e-07, No Iterations 0
DILUPBiCGStab:  Solving for Uy, Initial residual = 7.32448e-05, Final residual = 4.46512e-08, No Iterations 1
DILUPBiCGStab:  Solving for Uz, Initial residual = 0.00162107, Final residual = 3.19677e-06, No Iterations 1
DILUPBiCGStab:  Solving for T, Initial residual = 0.00567729, Final residual = 5.3594e-05, No Iterations 1
DICPCG:  Solving for p_rgh, Initial residual = 7.07182e-05, Final residual = 5.93942e-07, No Iterations 132
time step continuity errors : sum local = 1.08149e-11, global = -8.49045e-14, cumulative = 4.26729e-07
DILUPBiCGStab:  Solving for epsilon, Initial residual = 3.47979e-06, Final residual = 3.47979e-06, No Iterations 0
DILUPBiCGStab:  Solving for k, Initial residual = 9.89999e-06, Final residual = 9.89999e-06, No Iterations 0
ExecutionTime = 48458 s  ClockTime = 173033 s

Time = 562.8

DILUPBiCGStab:  Solving for Ux, Initial residual = 3.06915e-07, Final residual = 3.06915e-07, No Iterations 0
DILUPBiCGStab:  Solving for Uy, Initial residual = 7.30612e-05, Final residual = 4.44918e-08, No Iterations 1
DILUPBiCGStab:  Solving for Uz, Initial residual = 0.00161383, Final residual = 3.13166e-06, No Iterations 1
DILUPBiCGStab:  Solving for T, Initial residual = 0.00562969, Final residual = 5.16118e-05, No Iterations 1
DICPCG:  Solving for p_rgh, Initial residual = 7.03336e-05, Final residual = 5.87637e-07, No Iterations 132
time step continuity errors : sum local = 1.06994e-11, global = -8.42363e-14, cumulative = 4.26729e-07
DILUPBiCGStab:  Solving for epsilon, Initial residual = 3.48029e-06, Final residual = 3.48029e-06, No Iterations 0
DILUPBiCGStab:  Solving for k, Initial residual = 9.91199e-06, Final residual = 9.91199e-06, No Iterations 0
ExecutionTime = 48466.5 s  ClockTime = 173041 s

Time = 562.9

DILUPBiCGStab:  Solving for Ux, Initial residual = 3.06167e-07, Final residual = 3.06167e-07, No Iterations 0
DILUPBiCGStab:  Solving for Uy, Initial residual = 7.28783e-05, Final residual = 4.43346e-08, No Iterations 1
DILUPBiCGStab:  Solving for Uz, Initial residual = 0.00160741, Final residual = 3.07025e-06, No Iterations 1
DILUPBiCGStab:  Solving for T, Initial residual = 0.00558833, Final residual = 5.01251e-05, No Iterations 1
DICPCG:  Solving for p_rgh, Initial residual = 6.99893e-05, Final residual = 5.86261e-07, No Iterations 132
time step continuity errors : sum local = 1.06737e-11, global = -8.4644e-14, cumulative = 4.26729e-07
DILUPBiCGStab:  Solving for epsilon, Initial residual = 3.4808e-06, Final residual = 3.4808e-06, No Iterations 0
DILUPBiCGStab:  Solving for k, Initial residual = 9.92409e-06, Final residual = 9.92409e-06, No Iterations 0
ExecutionTime = 48475.3 s  ClockTime = 173050 s

Time = 563

DILUPBiCGStab:  Solving for Ux, Initial residual = 3.05421e-07, Final residual = 3.05421e-07, No Iterations 0
DILUPBiCGStab:  Solving for Uy, Initial residual = 7.26961e-05, Final residual = 4.41789e-08, No Iterations 1
DILUPBiCGStab:  Solving for Uz, Initial residual = 0.00160068, Final residual = 3.01085e-06, No Iterations 1
DILUPBiCGStab:  Solving for T, Initial residual = 0.00555396, Final residual = 4.87691e-05, No Iterations 1
DICPCG:  Solving for p_rgh, Initial residual = 6.96125e-05, Final residual = 5.80134e-07, No Iterations 132
time step continuity errors : sum local = 1.05614e-11, global = -8.4119e-14, cumulative = 4.26729e-07
DILUPBiCGStab:  Solving for epsilon, Initial residual = 3.48131e-06, Final residual = 3.48131e-06, No Iterations 0
DILUPBiCGStab:  Solving for k, Initial residual = 9.9363e-06, Final residual = 9.9363e-06, No Iterations 0
ExecutionTime = 48483.9 s  ClockTime = 173059 s

Time = 563.1

DILUPBiCGStab:  Solving for Ux, Initial residual = 3.04678e-07, Final residual = 3.04678e-07, No Iterations 0
DILUPBiCGStab:  Solving for Uy, Initial residual = 7.25145e-05, Final residual = 4.40249e-08, No Iterations 1
DILUPBiCGStab:  Solving for Uz, Initial residual = 0.00159468, Final residual = 2.95404e-06, No Iterations 1
DILUPBiCGStab:  Solving for T, Initial residual = 0.00551759, Final residual = 4.75261e-05, No Iterations 1
