/*---------------------------------------------------------------------------*\
| =========                 |                                                 |
| \\      /  F ield         | OpenFOAM: The Open Source CFD Toolbox           |
|  \\    /   O peration     | Version:  2012                                  |
|   \\  /    A nd           | Website:  www.openfoam.com                      |
|    \\/     M anipulation  |                                                 |
\*---------------------------------------------------------------------------*/
Build  : _269d0ffd5c-20210619 OPENFOAM=2012 patch=210618
Arch   : "LSB;label=32;scalar=64"
Exec   : /usr/lib/openfoam/openfoam2012/platforms/linux64GccDPInt32Opt/bin/buoyantBoussinesqSimpleFoam
Date   : Aug 24 2022
Time   : 04:31:43
Host   : 2a4f43be1f82
PID    : 776
I/O    : uncollated
Case   : /home/openfoam/of2012_projects/hotRoom4_B
nProcs : 1
trapFpe: Floating point exception trapping enabled (FOAM_SIGFPE).
fileModificationChecking : Monitoring run-time modified files using timeStampMaster (fileModificationSkew 5, maxFileModificationPolls 20)
allowSystemOperations : Allowing user-supplied system call operations

// * * * * * * * * * * * * * * * * * * * * * * * * * * * * * * * * * * * * * //
Create time

Create mesh for time = 0


SIMPLE: convergence criteria
    field p_rgh	 tolerance 0.01
    field U	 tolerance 0.0001
    field T	 tolerance 0.01
    field "(k|epsilon|omega)"	 tolerance 0.001

Reading thermophysical properties

Reading field T

Reading field p_rgh

Reading field U

Reading/calculating face flux field phi

Selecting incompressible transport model Newtonian
Creating turbulence model

Selecting turbulence model type RAS
Selecting RAS turbulence model kEpsilon
kEpsilonCoeffs
{
    Cmu             0.09;
    C1              1.44;
    C2              1.92;
    sigmaEps        1.11;
    C3              0;
    sigmak          1;
}

Reading field alphat


Reading g

Reading hRef
Calculating field g.h

No MRF models present

Radiation model not active: radiationProperties not found
Selecting radiationModel none
No finite volume options present

Starting time loop

Time = 1

DILUPBiCGStab:  Solving for Ux, Initial residual = 1, Final residual = 0.00213033, No Iterations 1
DILUPBiCGStab:  Solving for Uy, Initial residual = 1, Final residual = 0.0093318, No Iterations 1
DILUPBiCGStab:  Solving for Uz, Initial residual = 1, Final residual = 0.00289743, No Iterations 1
DILUPBiCGStab:  Solving for T, Initial residual = 0.4837, Final residual = 0.0150461, No Iterations 1
DICPCG:  Solving for p_rgh, Initial residual = 1, Final residual = 0.00950937, No Iterations 718
time step continuity errors : sum local = 268.546, global = -0.338063, cumulative = -0.338063
DILUPBiCGStab:  Solving for epsilon, Initial residual = 0.992934, Final residual = 0.0306855, No Iterations 1
bounding epsilon, min: -0.320942 max: 47.022 average: 0.66256
DILUPBiCGStab:  Solving for k, Initial residual = 1, Final residual = 0.0420591, No Iterations 1
ExecutionTime = 6.63 s  ClockTime = 7 s

    functionObjects::CourantNo CourantNo writing field: Co
Time = 2

DILUPBiCGStab:  Solving for Ux, Initial residual = 0.167827, Final residual = 0.00301535, No Iterations 1
DILUPBiCGStab:  Solving for Uy, Initial residual = 0.162191, Final residual = 0.00293492, No Iterations 1
DILUPBiCGStab:  Solving for Uz, Initial residual = 0.168908, Final residual = 0.00288144, No Iterations 1
DILUPBiCGStab:  Solving for T, Initial residual = 0.413971, Final residual = 0.0265841, No Iterations 1
DICPCG:  Solving for p_rgh, Initial residual = 9.34884e-12, Final residual = 9.34884e-12, No Iterations 0
time step continuity errors : sum local = 53.4603, global = -1.32905, cumulative = -1.66712
DILUPBiCGStab:  Solving for epsilon, Initial residual = 0.912565, Final residual = 0.00815503, No Iterations 1
bounding epsilon, min: -0.273698 max: 6085.75 average: 56.3409
DILUPBiCGStab:  Solving for k, Initial residual = 0.977249, Final residual = 0.0144491, No Iterations 1
ExecutionTime = 8.62 s  ClockTime = 10 s

    functionObjects::CourantNo CourantNo writing field: Co
Time = 3

DILUPBiCGStab:  Solving for Ux, Initial residual = 0.242151, Final residual = 0.00140921, No Iterations 1
DILUPBiCGStab:  Solving for Uy, Initial residual = 0.257369, Final residual = 0.00118872, No Iterations 1
DILUPBiCGStab:  Solving for Uz, Initial residual = 0.260606, Final residual = 0.00140173, No Iterations 1
DILUPBiCGStab:  Solving for T, Initial residual = 0.385292, Final residual = 0.00857191, No Iterations 1
DICPCG:  Solving for p_rgh, Initial residual = 5.76519e-12, Final residual = 5.76519e-12, No Iterations 0
time step continuity errors : sum local = 39.7219, global = -2.43039, cumulative = -4.09751
DILUPBiCGStab:  Solving for epsilon, Initial residual = 0.0600145, Final residual = 0.000176496, No Iterations 1
bounding epsilon, min: -12563.9 max: 1.09093e+07 average: 1871.11
DILUPBiCGStab:  Solving for k, Initial residual = 0.732189, Final residual = 0.0368196, No Iterations 1
bounding k, min: -41.4538 max: 3.92731e+06 average: 1189.53
ExecutionTime = 10.53 s  ClockTime = 12 s

    functionObjects::CourantNo CourantNo writing field: Co
Time = 4

DILUPBiCGStab:  Solving for Ux, Initial residual = 0.730322, Final residual = 0.00112707, No Iterations 1
DILUPBiCGStab:  Solving for Uy, Initial residual = 0.716257, Final residual = 0.00107607, No Iterations 1
DILUPBiCGStab:  Solving for Uz, Initial residual = 0.817641, Final residual = 0.00121485, No Iterations 1
DILUPBiCGStab:  Solving for T, Initial residual = 0.164707, Final residual = 0.000773423, No Iterations 1
DICPCG:  Solving for p_rgh, Initial residual = 9.62578e-12, Final residual = 9.62578e-12, No Iterations 0
time step continuity errors : sum local = 108.868, global = -15.9378, cumulative = -20.0353
DILUPBiCGStab:  Solving for epsilon, Initial residual = 0.0524106, Final residual = 4.18873e-07, No Iterations 1
bounding epsilon, min: -967.385 max: 1.73221e+09 average: 742468
DILUPBiCGStab:  Solving for k, Initial residual = 0.360982, Final residual = 0.00850515, No Iterations 1
bounding k, min: -12297 max: 1.24054e+08 average: 18878
ExecutionTime = 12.42 s  ClockTime = 15 s

    functionObjects::CourantNo CourantNo writing field: Co
Time = 5

DILUPBiCGStab:  Solving for Ux, Initial residual = 0.146778, Final residual = 0.000883343, No Iterations 1
DILUPBiCGStab:  Solving for Uy, Initial residual = 0.286827, Final residual = 0.00152695, No Iterations 1
DILUPBiCGStab:  Solving for Uz, Initial residual = 0.290466, Final residual = 0.0010493, No Iterations 1
DILUPBiCGStab:  Solving for T, Initial residual = 0.189565, Final residual = 0.00464656, No Iterations 1
DICPCG:  Solving for p_rgh, Initial residual = 4.93132e-12, Final residual = 4.93132e-12, No Iterations 0
time step continuity errors : sum local = 119.963, global = -13.4933, cumulative = -33.5287
DILUPBiCGStab:  Solving for epsilon, Initial residual = 0.0530512, Final residual = 0.000593356, No Iterations 1
bounding epsilon, min: -4.85221e+06 max: 1.41668e+10 average: 8.3681e+06
DILUPBiCGStab:  Solving for k, Initial residual = 0.627145, Final residual = 0.00681077, No Iterations 1
bounding k, min: -0.00041725 max: 4.3791e+08 average: 173178
ExecutionTime = 14.32 s  ClockTime = 17 s

    functionObjects::CourantNo CourantNo writing field: Co
Time = 6

DILUPBiCGStab:  Solving for Ux, Initial residual = 0.0219141, Final residual = 0.000252362, No Iterations 1
DILUPBiCGStab:  Solving for Uy, Initial residual = 0.147227, Final residual = 0.000800656, No Iterations 1
DILUPBiCGStab:  Solving for Uz, Initial residual = 0.0832854, Final residual = 0.000959518, No Iterations 1
DILUPBiCGStab:  Solving for T, Initial residual = 0.43446, Final residual = 0.0127134, No Iterations 1
DICPCG:  Solving for p_rgh, Initial residual = 7.02413e-12, Final residual = 7.02413e-12, No Iterations 0
time step continuity errors : sum local = 443.61, global = -294.728, cumulative = -328.256
DILUPBiCGStab:  Solving for epsilon, Initial residual = 0.00308059, Final residual = 1.57974e-06, No Iterations 1
bounding epsilon, min: -7.79144e+09 max: 4.98697e+12 average: 1.21347e+09
DILUPBiCGStab:  Solving for k, Initial residual = 0.00647541, Final residual = 0.000201025, No Iterations 1
bounding k, min: -654.884 max: 7.02767e+10 average: 2.55005e+07
ExecutionTime = 16.21 s  ClockTime = 20 s

    functionObjects::CourantNo CourantNo writing field: Co
Time = 7

DILUPBiCGStab:  Solving for Ux, Initial residual = 0.0269848, Final residual = 7.64201e-07, No Iterations 1
DILUPBiCGStab:  Solving for Uy, Initial residual = 0.270635, Final residual = 3.11936e-06, No Iterations 1
DILUPBiCGStab:  Solving for Uz, Initial residual = 0.1194, Final residual = 5.05622e-06, No Iterations 1
DILUPBiCGStab:  Solving for T, Initial residual = 0.188605, Final residual = 9.78984e-06, No Iterations 1
DICPCG:  Solving for p_rgh, Initial residual = 4.16551e-11, Final residual = 4.16551e-11, No Iterations 0
time step continuity errors : sum local = 2797.75, global = -1559.47, cumulative = -1887.72
DILUPBiCGStab:  Solving for epsilon, Initial residual = 0.00134349, Final residual = 2.65686e-11, No Iterations 1
bounding epsilon, min: -4.54765e+14 max: 3.73676e+15 average: 2.40668e+12
DILUPBiCGStab:  Solving for k, Initial residual = 0.117839, Final residual = 1.66402e-06, No Iterations 1
bounding k, min: -3.95117e+09 max: 5.8239e+10 average: 6.81582e+07
ExecutionTime = 18.11 s  ClockTime = 22 s

    functionObjects::CourantNo CourantNo writing field: Co
Time = 8

DILUPBiCGStab:  Solving for Ux, Initial residual = 0.180507, Final residual = 0.00299949, No Iterations 1
DILUPBiCGStab:  Solving for Uy, Initial residual = 0.670975, Final residual = 0.0119398, No Iterations 1
DILUPBiCGStab:  Solving for Uz, Initial residual = 0.203064, Final residual = 0.00432252, No Iterations 1
DILUPBiCGStab:  Solving for T, Initial residual = 0.208633, Final residual = 0.00427088, No Iterations 1
DICPCG:  Solving for p_rgh, Initial residual = 5.76449e-06, Final residual = 75.4894, No Iterations 1000
time step continuity errors : sum local = 2.05649e+14, global = -6.41089e+06, cumulative = -6.41278e+06
DILUPBiCGStab:  Solving for epsilon, Initial residual = 0.384862, Final residual = 0.00890402, No Iterations 1
bounding epsilon, min: -6.11935e+11 max: 5.13815e+23 average: 4.07674e+20
DILUPBiCGStab:  Solving for k, Initial residual = 0.458517, Final residual = 0.0242978, No Iterations 1
bounding k, min: -1.00987e+07 max: 5.41097e+19 average: 5.35186e+16
ExecutionTime = 25.18 s  ClockTime = 30 s

    functionObjects::CourantNo CourantNo writing field: Co
Time = 9

DILUPBiCGStab:  Solving for Ux, Initial residual = 0.176928, Final residual = 0.00106952, No Iterations 1
DILUPBiCGStab:  Solving for Uy, Initial residual = 0.20063, Final residual = 0.00128161, No Iterations 1
DILUPBiCGStab:  Solving for Uz, Initial residual = 0.1794, Final residual = 0.0023926, No Iterations 1
DILUPBiCGStab:  Solving for T, Initial residual = 0.362897, Final residual = 0.0094785, No Iterations 1
DICPCG:  Solving for p_rgh, Initial residual = 0.973892, Final residual = 0.000590992, No Iterations 1
time step continuity errors : sum local = 1.27564e+22, global = -2.22809e+15, cumulative = -2.22809e+15
DILUPBiCGStab:  Solving for epsilon, Initial residual = 1, Final residual = 0.00528869, No Iterations 1
bounding epsilon, min: -2.78238e+25 max: 8.68114e+40 average: 7.76465e+36
DILUPBiCGStab:  Solving for k, Initial residual = 1, Final residual = 2.2538e-06, No Iterations 1
bounding k, min: -2.19875e+16 max: 2.74845e+34 average: 1.90899e+31
ExecutionTime = 27.36 s  ClockTime = 33 s

    functionObjects::CourantNo CourantNo writing field: Co
Time = 10

DILUPBiCGStab:  Solving for Ux, Initial residual = 5.6365e-09, Final residual = 5.6365e-09, No Iterations 0
DILUPBiCGStab:  Solving for Uy, Initial residual = 1.57874e-07, Final residual = 1.57874e-07, No Iterations 0
DILUPBiCGStab:  Solving for Uz, Initial residual = 3.85579e-09, Final residual = 3.85579e-09, No Iterations 0
DILUPBiCGStab:  Solving for T, Initial residual = 4.73387e-06, Final residual = 4.73387e-06, No Iterations 0
DICPCG:  Solving for p_rgh, Initial residual = 0.362027, Final residual = 0.00348461, No Iterations 46
time step continuity errors : sum local = 1.86016e+24, global = -3.2828e+15, cumulative = -5.51089e+15
DILUPBiCGStab:  Solving for epsilon, Initial residual = 0.0948263, Final residual = 1.81279e-18, No Iterations 1
bounding epsilon, min: -1.88387e+47 max: 3.7815e+58 average: 2.67599e+54
DILUPBiCGStab:  Solving for k, Initial residual = 0.0711418, Final residual = 0.00091158, No Iterations 1
bounding k, min: -2.06021e+32 max: 7.20726e+50 average: 1.14771e+47
ExecutionTime = 29.76 s  ClockTime = 36 s

    functionObjects::CourantNo CourantNo writing field: Co
Time = 11

DILUPBiCGStab:  Solving for Ux, Initial residual = 1.28217e-09, Final residual = 1.28217e-09, No Iterations 0
DILUPBiCGStab:  Solving for Uy, Initial residual = 2.75518e-10, Final residual = 2.75518e-10, No Iterations 0
DILUPBiCGStab:  Solving for Uz, Initial residual = 1.0834e-10, Final residual = 1.0834e-10, No Iterations 0
DILUPBiCGStab:  Solving for T, Initial residual = 2.11899e-05, Final residual = 3.50977e-20, No Iterations 1
DICPCG:  Solving for p_rgh, Initial residual = 0.880173, Final residual = 8.73707e-07, No Iterations 2
time step continuity errors : sum local = 6.67427e+41, global = -8.48399e+25, cumulative = -8.48399e+25
DILUPBiCGStab:  Solving for epsilon, Initial residual = 8.82419e-09, Final residual = 8.82419e-09, No Iterations 0
bounding epsilon, min: 2.9342e-23 max: 9.87988e+72 average: 2.30028e+69
DILUPBiCGStab:  Solving for k, Initial residual = 0.000558705, Final residual = 8.03976e-08, No Iterations 1
bounding k, min: -3.36103e+48 max: 8.94998e+73 average: 1.01824e+70
ExecutionTime = 32 s  ClockTime = 39 s

    functionObjects::CourantNo CourantNo writing field: Co
Time = 12

DILUPBiCGStab:  Solving for Ux, Initial residual = 0.412626, Final residual = nan, No Iterations 1000
DILUPBiCGStab:  Solving for Uy, Initial residual = 0.885273, Final residual = nan, No Iterations 1000
DILUPBiCGStab:  Solving for Uz, Initial residual = 0.301966, Final residual = nan, No Iterations 1000
DILUPBiCGStab:  Solving for T, Initial residual = 9.77468e-07, Final residual = 9.77468e-07, No Iterations 0
DICPCG:  Solving for p_rgh, Initial residual = nan, Final residual = nan, No Iterations 1000
time step continuity errors : sum local = nan, global = -nan, cumulative = -nan
DILUPBiCGStab:  Solving for epsilon, Initial residual = nan, Final residual = nan, No Iterations 1000
bounding epsilon, min: 2.97003e-23 max: 1.9631e+108 average: nan
DILUPBiCGStab:  Solving for k, Initial residual = nan, Final residual = nan, No Iterations 1000
ExecutionTime = 132.55 s  ClockTime = 140 s



--> FOAM FATAL IO ERROR: (openfoam-2012 patch=210618)
Wrong token type - expected scalar value, found on line 0: word 'nan'

file: /home/openfoam/of2012_projects/hotRoom4_B/system/data.solverPerformance.U at line 0.

    From Foam::Istream& Foam::operator>>(Foam::Istream&, Foam::doubleScalar&)
    in file lnInclude/Scalar.C at line 154.

FOAM exiting

