/*---------------------------------------------------------------------------*\
| =========                 |                                                 |
| \\      /  F ield         | OpenFOAM: The Open Source CFD Toolbox           |
|  \\    /   O peration     | Version:  2012                                  |
|   \\  /    A nd           | Website:  www.openfoam.com                      |
|    \\/     M anipulation  |                                                 |
\*---------------------------------------------------------------------------*/
Build  : _269d0ffd5c-20210619 OPENFOAM=2012 patch=210618
Arch   : "LSB;label=32;scalar=64"
Exec   : /usr/lib/openfoam/openfoam2012/platforms/linux64GccDPInt32Opt/bin/buoyantBoussinesqSimpleFoam
Date   : Aug 24 2022
Time   : 17:04:59
Host   : 3142f0d1db43
PID    : 689
I/O    : uncollated
Case   : /home/openfoam/of2012_projects/hotRoom4_B
nProcs : 1
trapFpe: Floating point exception trapping enabled (FOAM_SIGFPE).
fileModificationChecking : Monitoring run-time modified files using timeStampMaster (fileModificationSkew 5, maxFileModificationPolls 20)
allowSystemOperations : Allowing user-supplied system call operations

// * * * * * * * * * * * * * * * * * * * * * * * * * * * * * * * * * * * * * //
Create time

Create mesh for time = 400


SIMPLE: convergence criteria
    field p_rgh	 tolerance 0.01
    field U	 tolerance 0.0001
    field T	 tolerance 0.01
    field "(k|epsilon|omega)"	 tolerance 0.001

Reading thermophysical properties

Reading field T

Reading field p_rgh

Reading field U

Reading/calculating face flux field phi

Selecting incompressible transport model Newtonian
Creating turbulence model

Selecting turbulence model type RAS
Selecting RAS turbulence model kEpsilon
kEpsilonCoeffs
{
    Cmu             0.09;
    C1              1.44;
    C2              1.92;
    sigmaEps        1.11;
    C3              0;
    sigmak          1;
}

Reading field alphat


Reading g

Reading hRef
Calculating field g.h

No MRF models present

Radiation model not active: radiationProperties not found
Selecting radiationModel none
No finite volume options present

Starting time loop

Time = 401

DILUPBiCGStab:  Solving for Ux, Initial residual = 0.00474793, Final residual = 6.19233e-05, No Iterations 1
DILUPBiCGStab:  Solving for Uy, Initial residual = 0.00394302, Final residual = 4.82427e-05, No Iterations 1
DILUPBiCGStab:  Solving for Uz, Initial residual = 0.00473671, Final residual = 6.13021e-05, No Iterations 1
DILUPBiCGStab:  Solving for T, Initial residual = 0.478461, Final residual = 0.0170331, No Iterations 1
DICPCG:  Solving for p_rgh, Initial residual = 2.16148e-12, Final residual = 2.16148e-12, No Iterations 0
time step continuity errors : sum local = 7.14189e-12, global = -8.79476e-28, cumulative = -1.65662e-27
DILUPBiCGStab:  Solving for epsilon, Initial residual = 0.0225416, Final residual = 0.000355287, No Iterations 1
bounding epsilon, min: 9.29912e-23 max: 1.61139e-07 average: 9.66837e-09
DILUPBiCGStab:  Solving for k, Initial residual = 0.0169916, Final residual = 0.000274934, No Iterations 1
bounding k, min: 3.05934e-16 max: 4.20432e-05 average: 1.15064e-05
ExecutionTime = 1.53 s  ClockTime = 3 s

Time = 402

DILUPBiCGStab:  Solving for Ux, Initial residual = 0.00458661, Final residual = 6.25727e-05, No Iterations 1
DILUPBiCGStab:  Solving for Uy, Initial residual = 0.00392337, Final residual = 5.16704e-05, No Iterations 1
DILUPBiCGStab:  Solving for Uz, Initial residual = 0.00452686, Final residual = 6.09862e-05, No Iterations 1
DILUPBiCGStab:  Solving for T, Initial residual = 0.422114, Final residual = 0.0136915, No Iterations 1
DICPCG:  Solving for p_rgh, Initial residual = 2.13797e-12, Final residual = 2.13797e-12, No Iterations 0
time step continuity errors : sum local = 7.08699e-12, global = 3.20132e-28, cumulative = -1.33649e-27
DILUPBiCGStab:  Solving for epsilon, Initial residual = 0.022533, Final residual = 0.00035516, No Iterations 1
bounding epsilon, min: 9.29912e-23 max: 1.56987e-07 average: 9.42087e-09
DILUPBiCGStab:  Solving for k, Initial residual = 0.016987, Final residual = 0.000274864, No Iterations 1
bounding k, min: 3.05934e-16 max: 4.13327e-05 average: 1.13087e-05
ExecutionTime = 1.88 s  ClockTime = 3 s

Time = 403

DILUPBiCGStab:  Solving for Ux, Initial residual = 0.00426668, Final residual = 6.04331e-05, No Iterations 1
DILUPBiCGStab:  Solving for Uy, Initial residual = 0.00363154, Final residual = 4.95004e-05, No Iterations 1
DILUPBiCGStab:  Solving for Uz, Initial residual = 0.00418499, Final residual = 5.87675e-05, No Iterations 1
DILUPBiCGStab:  Solving for T, Initial residual = 0.389138, Final residual = 0.0127478, No Iterations 1
DICPCG:  Solving for p_rgh, Initial residual = 2.1277e-12, Final residual = 2.1277e-12, No Iterations 0
time step continuity errors : sum local = 7.0518e-12, global = -1.98232e-27, cumulative = -3.31881e-27
DILUPBiCGStab:  Solving for epsilon, Initial residual = 0.0225243, Final residual = 0.000355033, No Iterations 1
bounding epsilon, min: 9.29912e-23 max: 1.52943e-07 average: 9.17972e-09
DILUPBiCGStab:  Solving for k, Initial residual = 0.0169824, Final residual = 0.000274796, No Iterations 1
bounding k, min: 3.05933e-16 max: 4.06342e-05 average: 1.11144e-05
ExecutionTime = 2.23 s  ClockTime = 3 s

Time = 404

DILUPBiCGStab:  Solving for Ux, Initial residual = 0.00406719, Final residual = 5.83465e-05, No Iterations 1
DILUPBiCGStab:  Solving for Uy, Initial residual = 0.00343916, Final residual = 4.81697e-05, No Iterations 1
DILUPBiCGStab:  Solving for Uz, Initial residual = 0.00397021, Final residual = 5.73884e-05, No Iterations 1
DILUPBiCGStab:  Solving for T, Initial residual = 0.38862, Final residual = 0.0125523, No Iterations 1
DICPCG:  Solving for p_rgh, Initial residual = 2.13041e-12, Final residual = 2.13041e-12, No Iterations 0
time step continuity errors : sum local = 7.06454e-12, global = -4.98627e-28, cumulative = -3.81744e-27
DILUPBiCGStab:  Solving for epsilon, Initial residual = 0.0225156, Final residual = 0.000354905, No Iterations 1
bounding epsilon, min: 9.29912e-23 max: 1.49003e-07 average: 8.94474e-09
DILUPBiCGStab:  Solving for k, Initial residual = 0.0169778, Final residual = 0.000274729, No Iterations 1
bounding k, min: 3.05933e-16 max: 3.99475e-05 average: 1.09235e-05
ExecutionTime = 2.57 s  ClockTime = 4 s

Time = 405

DILUPBiCGStab:  Solving for Ux, Initial residual = 0.00400808, Final residual = 5.86483e-05, No Iterations 1
DILUPBiCGStab:  Solving for Uy, Initial residual = 0.00339206, Final residual = 4.86937e-05, No Iterations 1
DILUPBiCGStab:  Solving for Uz, Initial residual = 0.0039124, Final residual = 5.79333e-05, No Iterations 1
DILUPBiCGStab:  Solving for T, Initial residual = 0.374116, Final residual = 0.0120974, No Iterations 1
DICPCG:  Solving for p_rgh, Initial residual = 2.13038e-12, Final residual = 2.13038e-12, No Iterations 0
time step continuity errors : sum local = 7.05629e-12, global = -1.22276e-27, cumulative = -5.0402e-27
DILUPBiCGStab:  Solving for epsilon, Initial residual = 0.022507, Final residual = 0.000354777, No Iterations 1
bounding epsilon, min: 9.29912e-23 max: 1.45164e-07 average: 8.71579e-09
DILUPBiCGStab:  Solving for k, Initial residual = 0.0169732, Final residual = 0.000274661, No Iterations 1
bounding k, min: 3.05933e-16 max: 3.92723e-05 average: 1.07358e-05
ExecutionTime = 2.92 s  ClockTime = 4 s

Time = 406

DILUPBiCGStab:  Solving for Ux, Initial residual = 0.00401235, Final residual = 5.96867e-05, No Iterations 1
DILUPBiCGStab:  Solving for Uy, Initial residual = 0.00341963, Final residual = 4.8941e-05, No Iterations 1
DILUPBiCGStab:  Solving for Uz, Initial residual = 0.00390121, Final residual = 5.78212e-05, No Iterations 1
DILUPBiCGStab:  Solving for T, Initial residual = 0.371213, Final residual = 0.0119235, No Iterations 1
DICPCG:  Solving for p_rgh, Initial residual = 2.13754e-12, Final residual = 2.13754e-12, No Iterations 0
time step continuity errors : sum local = 7.08099e-12, global = -3.94251e-28, cumulative = -5.43445e-27
DILUPBiCGStab:  Solving for epsilon, Initial residual = 0.0224982, Final residual = 0.000354648, No Iterations 1
bounding epsilon, min: 9.29912e-23 max: 1.41425e-07 average: 8.4927e-09
DILUPBiCGStab:  Solving for k, Initial residual = 0.0169686, Final residual = 0.000274593, No Iterations 1
bounding k, min: 3.05933e-16 max: 3.86085e-05 average: 1.05514e-05
ExecutionTime = 3.26 s  ClockTime = 4 s

Time = 407

DILUPBiCGStab:  Solving for Ux, Initial residual = 0.00396449, Final residual = 5.8647e-05, No Iterations 1
DILUPBiCGStab:  Solving for Uy, Initial residual = 0.00342554, Final residual = 4.9818e-05, No Iterations 1
DILUPBiCGStab:  Solving for Uz, Initial residual = 0.00388429, Final residual = 5.77476e-05, No Iterations 1
DILUPBiCGStab:  Solving for T, Initial residual = 0.367899, Final residual = 0.0117767, No Iterations 1
DICPCG:  Solving for p_rgh, Initial residual = 2.13918e-12, Final residual = 2.13918e-12, No Iterations 0
time step continuity errors : sum local = 7.08802e-12, global = 1.2387e-27, cumulative = -4.19575e-27
DILUPBiCGStab:  Solving for epsilon, Initial residual = 0.0224895, Final residual = 0.000354519, No Iterations 1
bounding epsilon, min: 9.29912e-23 max: 1.37782e-07 average: 8.27533e-09
DILUPBiCGStab:  Solving for k, Initial residual = 0.016964, Final residual = 0.000274524, No Iterations 1
bounding k, min: 3.05932e-16 max: 3.79559e-05 average: 1.03701e-05
ExecutionTime = 3.61 s  ClockTime = 5 s

Time = 408

DILUPBiCGStab:  Solving for Ux, Initial residual = 0.00399575, Final residual = 5.90579e-05, No Iterations 1
DILUPBiCGStab:  Solving for Uy, Initial residual = 0.00338398, Final residual = 4.91992e-05, No Iterations 1
DILUPBiCGStab:  Solving for Uz, Initial residual = 0.0039417, Final residual = 5.89532e-05, No Iterations 1
DILUPBiCGStab:  Solving for T, Initial residual = 0.36351, Final residual = 0.011978, No Iterations 1
DICPCG:  Solving for p_rgh, Initial residual = 2.14375e-12, Final residual = 2.14375e-12, No Iterations 0
time step continuity errors : sum local = 7.09861e-12, global = -9.84765e-28, cumulative = -5.18051e-27
DILUPBiCGStab:  Solving for epsilon, Initial residual = 0.0224808, Final residual = 0.00035439, No Iterations 1
bounding epsilon, min: 9.29912e-23 max: 1.34233e-07 average: 8.06352e-09
DILUPBiCGStab:  Solving for k, Initial residual = 0.0169594, Final residual = 0.000274456, No Iterations 1
bounding k, min: 3.05932e-16 max: 3.73142e-05 average: 1.01919e-05
ExecutionTime = 3.96 s  ClockTime = 5 s

Time = 409

DILUPBiCGStab:  Solving for Ux, Initial residual = 0.00395289, Final residual = 5.83051e-05, No Iterations 1
DILUPBiCGStab:  Solving for Uy, Initial residual = 0.00343257, Final residual = 4.99533e-05, No Iterations 1
DILUPBiCGStab:  Solving for Uz, Initial residual = 0.00384546, Final residual = 5.757e-05, No Iterations 1
DILUPBiCGStab:  Solving for T, Initial residual = 0.357947, Final residual = 0.0115403, No Iterations 1
DICPCG:  Solving for p_rgh, Initial residual = 2.15604e-12, Final residual = 2.15604e-12, No Iterations 0
time step continuity errors : sum local = 7.13111e-12, global = -1.00314e-27, cumulative = -6.18366e-27
DILUPBiCGStab:  Solving for epsilon, Initial residual = 0.022472, Final residual = 0.00035426, No Iterations 1
bounding epsilon, min: 9.29912e-23 max: 1.30775e-07 average: 7.85715e-09
DILUPBiCGStab:  Solving for k, Initial residual = 0.0169548, Final residual = 0.000274387, No Iterations 1
bounding k, min: 3.05932e-16 max: 3.66834e-05 average: 1.00168e-05
ExecutionTime = 4.3 s  ClockTime = 5 s

Time = 410

DILUPBiCGStab:  Solving for Ux, Initial residual = 0.00385033, Final residual = 5.74504e-05, No Iterations 1
DILUPBiCGStab:  Solving for Uy, Initial residual = 0.00336423, Final residual = 4.90106e-05, No Iterations 1
DILUPBiCGStab:  Solving for Uz, Initial residual = 0.00375752, Final residual = 5.58205e-05, No Iterations 1
DILUPBiCGStab:  Solving for T, Initial residual = 0.364418, Final residual = 0.0117381, No Iterations 1
DICPCG:  Solving for p_rgh, Initial residual = 2.16788e-12, Final residual = 2.16788e-12, No Iterations 0
time step continuity errors : sum local = 7.17897e-12, global = -4.71924e-28, cumulative = -6.65558e-27
DILUPBiCGStab:  Solving for epsilon, Initial residual = 0.0224633, Final residual = 0.00035413, No Iterations 1
bounding epsilon, min: 9.29912e-23 max: 1.27407e-07 average: 7.65605e-09
DILUPBiCGStab:  Solving for k, Initial residual = 0.0169501, Final residual = 0.000274318, No Iterations 1
bounding k, min: 3.05932e-16 max: 3.60632e-05 average: 9.84475e-06
ExecutionTime = 4.66 s  ClockTime = 6 s

Time = 411

DILUPBiCGStab:  Solving for Ux, Initial residual = 0.00391027, Final residual = 5.72672e-05, No Iterations 1
DILUPBiCGStab:  Solving for Uy, Initial residual = 0.00337631, Final residual = 4.95641e-05, No Iterations 1
DILUPBiCGStab:  Solving for Uz, Initial residual = 0.0038509, Final residual = 5.72883e-05, No Iterations 1
DILUPBiCGStab:  Solving for T, Initial residual = 0.357171, Final residual = 0.011733, No Iterations 1
DICPCG:  Solving for p_rgh, Initial residual = 2.16778e-12, Final residual = 2.16778e-12, No Iterations 0
time step continuity errors : sum local = 7.1875e-12, global = 2.79316e-28, cumulative = -6.37626e-27
DILUPBiCGStab:  Solving for epsilon, Initial residual = 0.0224545, Final residual = 0.000354, No Iterations 1
bounding epsilon, min: 9.29912e-23 max: 1.24126e-07 average: 7.46011e-09
DILUPBiCGStab:  Solving for k, Initial residual = 0.0169455, Final residual = 0.000274249, No Iterations 1
bounding k, min: 3.05932e-16 max: 3.54534e-05 average: 9.67561e-06
ExecutionTime = 5 s  ClockTime = 6 s

Time = 412

DILUPBiCGStab:  Solving for Ux, Initial residual = 0.00390246, Final residual = 5.73203e-05, No Iterations 1
DILUPBiCGStab:  Solving for Uy, Initial residual = 0.00342857, Final residual = 5.06766e-05, No Iterations 1
DILUPBiCGStab:  Solving for Uz, Initial residual = 0.00384597, Final residual = 5.69787e-05, No Iterations 1
DILUPBiCGStab:  Solving for T, Initial residual = 0.35516, Final residual = 0.0118409, No Iterations 1
DICPCG:  Solving for p_rgh, Initial residual = 2.1723e-12, Final residual = 2.1723e-12, No Iterations 0
time step continuity errors : sum local = 7.20583e-12, global = -9.36435e-28, cumulative = -7.3127e-27
DILUPBiCGStab:  Solving for epsilon, Initial residual = 0.0224457, Final residual = 0.000353869, No Iterations 1
bounding epsilon, min: 9.29912e-23 max: 1.20929e-07 average: 7.26919e-09
DILUPBiCGStab:  Solving for k, Initial residual = 0.0169408, Final residual = 0.00027418, No Iterations 1
bounding k, min: 3.05932e-16 max: 3.48539e-05 average: 9.50939e-06
ExecutionTime = 5.35 s  ClockTime = 6 s

Time = 413

DILUPBiCGStab:  Solving for Ux, Initial residual = 0.00391336, Final residual = 5.80254e-05, No Iterations 1
DILUPBiCGStab:  Solving for Uy, Initial residual = 0.00343725, Final residual = 5.05193e-05, No Iterations 1
DILUPBiCGStab:  Solving for Uz, Initial residual = 0.00386914, Final residual = 5.64784e-05, No Iterations 1
DILUPBiCGStab:  Solving for T, Initial residual = 0.356112, Final residual = 0.0114411, No Iterations 1
DICPCG:  Solving for p_rgh, Initial residual = 2.18684e-12, Final residual = 2.18684e-12, No Iterations 0
time step continuity errors : sum local = 7.2413e-12, global = 7.11744e-28, cumulative = -6.60095e-27
DILUPBiCGStab:  Solving for epsilon, Initial residual = 0.0224368, Final residual = 0.000353737, No Iterations 1
bounding epsilon, min: 9.29912e-23 max: 1.17815e-07 average: 7.08316e-09
DILUPBiCGStab:  Solving for k, Initial residual = 0.0169361, Final residual = 0.00027411, No Iterations 1
bounding k, min: 3.05931e-16 max: 3.42646e-05 average: 9.34602e-06
ExecutionTime = 5.7 s  ClockTime = 7 s

Time = 414

DILUPBiCGStab:  Solving for Ux, Initial residual = 0.00387373, Final residual = 5.67364e-05, No Iterations 1
DILUPBiCGStab:  Solving for Uy, Initial residual = 0.00342993, Final residual = 4.95254e-05, No Iterations 1
DILUPBiCGStab:  Solving for Uz, Initial residual = 0.00387773, Final residual = 5.75958e-05, No Iterations 1
DILUPBiCGStab:  Solving for T, Initial residual = 0.364786, Final residual = 0.0117094, No Iterations 1
DICPCG:  Solving for p_rgh, Initial residual = 2.18233e-12, Final residual = 2.18233e-12, No Iterations 0
time step continuity errors : sum local = 7.22598e-12, global = -4.40042e-28, cumulative = -7.041e-27
DILUPBiCGStab:  Solving for epsilon, Initial residual = 0.022428, Final residual = 0.000353605, No Iterations 1
bounding epsilon, min: 9.29912e-23 max: 1.14781e-07 average: 6.90189e-09
DILUPBiCGStab:  Solving for k, Initial residual = 0.0169315, Final residual = 0.00027404, No Iterations 1
bounding k, min: 3.05931e-16 max: 3.36851e-05 average: 9.18546e-06
ExecutionTime = 6.04 s  ClockTime = 7 s

Time = 415

DILUPBiCGStab:  Solving for Ux, Initial residual = 0.00395392, Final residual = 5.84595e-05, No Iterations 1
DILUPBiCGStab:  Solving for Uy, Initial residual = 0.0035007, Final residual = 5.13409e-05, No Iterations 1
DILUPBiCGStab:  Solving for Uz, Initial residual = 0.00391405, Final residual = 5.76992e-05, No Iterations 1
DILUPBiCGStab:  Solving for T, Initial residual = 0.350115, Final residual = 0.0114029, No Iterations 1
DICPCG:  Solving for p_rgh, Initial residual = 2.1811e-12, Final residual = 2.1811e-12, No Iterations 0
time step continuity errors : sum local = 7.22908e-12, global = 3.22539e-27, cumulative = -3.81561e-27
DILUPBiCGStab:  Solving for epsilon, Initial residual = 0.0224191, Final residual = 0.000353473, No Iterations 1
bounding epsilon, min: 9.29912e-23 max: 1.11825e-07 average: 6.72527e-09
DILUPBiCGStab:  Solving for k, Initial residual = 0.0169268, Final residual = 0.00027397, No Iterations 1
bounding k, min: 3.05931e-16 max: 3.31154e-05 average: 9.02765e-06
ExecutionTime = 6.38 s  ClockTime = 8 s

Time = 416

DILUPBiCGStab:  Solving for Ux, Initial residual = 0.00401958, Final residual = 5.95472e-05, No Iterations 1
DILUPBiCGStab:  Solving for Uy, Initial residual = 0.00354981, Final residual = 5.1227e-05, No Iterations 1
DILUPBiCGStab:  Solving for Uz, Initial residual = 0.00396031, Final residual = 5.75345e-05, No Iterations 1
DILUPBiCGStab:  Solving for T, Initial residual = 0.345426, Final residual = 0.0113183, No Iterations 1
DICPCG:  Solving for p_rgh, Initial residual = 2.18872e-12, Final residual = 2.18872e-12, No Iterations 0
time step continuity errors : sum local = 7.25218e-12, global = 1.2387e-27, cumulative = -2.57691e-27
DILUPBiCGStab:  Solving for epsilon, Initial residual = 0.0224102, Final residual = 0.00035334, No Iterations 1
bounding epsilon, min: 9.29912e-23 max: 1.08946e-07 average: 6.55317e-09
DILUPBiCGStab:  Solving for k, Initial residual = 0.0169221, Final residual = 0.0002739, No Iterations 1
bounding k, min: 3.05931e-16 max: 3.25553e-05 average: 8.87256e-06
ExecutionTime = 6.73 s  ClockTime = 8 s

Time = 417

DILUPBiCGStab:  Solving for Ux, Initial residual = 0.00398114, Final residual = 5.78323e-05, No Iterations 1
DILUPBiCGStab:  Solving for Uy, Initial residual = 0.00355598, Final residual = 5.23333e-05, No Iterations 1
DILUPBiCGStab:  Solving for Uz, Initial residual = 0.00398267, Final residual = 5.75453e-05, No Iterations 1
DILUPBiCGStab:  Solving for T, Initial residual = 0.345248, Final residual = 0.0112628, No Iterations 1
DICPCG:  Solving for p_rgh, Initial residual = 2.1958e-12, Final residual = 2.1958e-12, No Iterations 0
time step continuity errors : sum local = 7.28591e-12, global = 5.35788e-28, cumulative = -2.04112e-27
DILUPBiCGStab:  Solving for epsilon, Initial residual = 0.0224012, Final residual = 0.000353207, No Iterations 1
bounding epsilon, min: 9.29912e-23 max: 1.06141e-07 average: 6.38547e-09
DILUPBiCGStab:  Solving for k, Initial residual = 0.0169174, Final residual = 0.000273829, No Iterations 1
bounding k, min: 3.0593e-16 max: 3.20046e-05 average: 8.72013e-06
ExecutionTime = 7.07 s  ClockTime = 8 s

Time = 418

DILUPBiCGStab:  Solving for Ux, Initial residual = 0.00394716, Final residual = 5.77958e-05, No Iterations 1
DILUPBiCGStab:  Solving for Uy, Initial residual = 0.00352961, Final residual = 5.21929e-05, No Iterations 1
DILUPBiCGStab:  Solving for Uz, Initial residual = 0.00393984, Final residual = 5.78291e-05, No Iterations 1
DILUPBiCGStab:  Solving for T, Initial residual = 0.346053, Final residual = 0.0113708, No Iterations 1
DICPCG:  Solving for p_rgh, Initial residual = 2.20327e-12, Final residual = 2.20327e-12, No Iterations 0
time step continuity errors : sum local = 7.2799e-12, global = -1.08873e-27, cumulative = -3.12986e-27
DILUPBiCGStab:  Solving for epsilon, Initial residual = 0.0223923, Final residual = 0.000353073, No Iterations 1
bounding epsilon, min: 9.29912e-23 max: 1.03408e-07 average: 6.22207e-09
DILUPBiCGStab:  Solving for k, Initial residual = 0.0169127, Final residual = 0.000273758, No Iterations 1
bounding k, min: 3.0593e-16 max: 3.14632e-05 average: 8.57032e-06
ExecutionTime = 7.42 s  ClockTime = 9 s

Time = 419

DILUPBiCGStab:  Solving for Ux, Initial residual = 0.00399545, Final residual = 5.84302e-05, No Iterations 1
DILUPBiCGStab:  Solving for Uy, Initial residual = 0.00356844, Final residual = 5.25007e-05, No Iterations 1
DILUPBiCGStab:  Solving for Uz, Initial residual = 0.0040283, Final residual = 5.85057e-05, No Iterations 1
DILUPBiCGStab:  Solving for T, Initial residual = 0.348858, Final residual = 0.0113425, No Iterations 1
DICPCG:  Solving for p_rgh, Initial residual = 2.21426e-12, Final residual = 2.21426e-12, No Iterations 0
time step continuity errors : sum local = 7.33006e-12, global = 2.23128e-27, cumulative = -8.98578e-28
DILUPBiCGStab:  Solving for epsilon, Initial residual = 0.0223833, Final residual = 0.000352939, No Iterations 1
bounding epsilon, min: 9.29912e-23 max: 1.00745e-07 average: 6.06286e-09
DILUPBiCGStab:  Solving for k, Initial residual = 0.0169079, Final residual = 0.000273687, No Iterations 1
bounding k, min: 3.0593e-16 max: 3.0931e-05 average: 8.42308e-06
ExecutionTime = 7.76 s  ClockTime = 9 s

Time = 420

DILUPBiCGStab:  Solving for Ux, Initial residual = 0.00402894, Final residual = 5.91829e-05, No Iterations 1
DILUPBiCGStab:  Solving for Uy, Initial residual = 0.00361906, Final residual = 5.26807e-05, No Iterations 1
DILUPBiCGStab:  Solving for Uz, Initial residual = 0.00398473, Final residual = 5.77088e-05, No Iterations 1
DILUPBiCGStab:  Solving for T, Initial residual = 0.345476, Final residual = 0.0113012, No Iterations 1
DICPCG:  Solving for p_rgh, Initial residual = 2.22898e-12, Final residual = 2.22898e-12, No Iterations 0
time step continuity errors : sum local = 7.37417e-12, global = 1.3843e-27, cumulative = 4.85718e-28
DILUPBiCGStab:  Solving for epsilon, Initial residual = 0.0223743, Final residual = 0.000352805, No Iterations 1
bounding epsilon, min: 9.29912e-23 max: 9.81515e-08 average: 5.90772e-09
DILUPBiCGStab:  Solving for k, Initial residual = 0.0169032, Final residual = 0.000273616, No Iterations 1
bounding k, min: 3.0593e-16 max: 3.04077e-05 average: 8.27837e-06
ExecutionTime = 8.12 s  ClockTime = 9 s

Time = 421

DILUPBiCGStab:  Solving for Ux, Initial residual = 0.00400447, Final residual = 5.76971e-05, No Iterations 1
DILUPBiCGStab:  Solving for Uy, Initial residual = 0.00359802, Final residual = 5.28689e-05, No Iterations 1
DILUPBiCGStab:  Solving for Uz, Initial residual = 0.00404301, Final residual = 5.86768e-05, No Iterations 1
DILUPBiCGStab:  Solving for T, Initial residual = 0.344853, Final residual = 0.0108932, No Iterations 1
DICPCG:  Solving for p_rgh, Initial residual = 2.2169e-12, Final residual = 2.2169e-12, No Iterations 0
time step continuity errors : sum local = 7.35479e-12, global = -3.37494e-28, cumulative = 1.48223e-28
DILUPBiCGStab:  Solving for epsilon, Initial residual = 0.0223653, Final residual = 0.000352669, No Iterations 1
bounding epsilon, min: 9.29912e-23 max: 9.56246e-08 average: 5.75655e-09
DILUPBiCGStab:  Solving for k, Initial residual = 0.0168984, Final residual = 0.000273544, No Iterations 1
bounding k, min: 3.05929e-16 max: 2.98932e-05 average: 8.13614e-06
ExecutionTime = 8.46 s  ClockTime = 10 s

Time = 422

DILUPBiCGStab:  Solving for Ux, Initial residual = 0.00405593, Final residual = 5.85021e-05, No Iterations 1
DILUPBiCGStab:  Solving for Uy, Initial residual = 0.0036608, Final residual = 5.31211e-05, No Iterations 1
DILUPBiCGStab:  Solving for Uz, Initial residual = 0.00405085, Final residual = 5.91277e-05, No Iterations 1
DILUPBiCGStab:  Solving for T, Initial residual = 0.341412, Final residual = 0.0110607, No Iterations 1
DICPCG:  Solving for p_rgh, Initial residual = 2.24524e-12, Final residual = 2.24524e-12, No Iterations 0
time step continuity errors : sum local = 7.42697e-12, global = 4.85427e-28, cumulative = 6.33651e-28
DILUPBiCGStab:  Solving for epsilon, Initial residual = 0.0223562, Final residual = 0.000352534, No Iterations 1
bounding epsilon, min: 9.29912e-23 max: 9.31627e-08 average: 5.60925e-09
DILUPBiCGStab:  Solving for k, Initial residual = 0.0168937, Final residual = 0.000273472, No Iterations 1
bounding k, min: 3.05929e-16 max: 2.93874e-05 average: 7.99636e-06
ExecutionTime = 8.81 s  ClockTime = 10 s

Time = 423

DILUPBiCGStab:  Solving for Ux, Initial residual = 0.00403985, Final residual = 5.8638e-05, No Iterations 1
DILUPBiCGStab:  Solving for Uy, Initial residual = 0.00364697, Final residual = 5.24272e-05, No Iterations 1
DILUPBiCGStab:  Solving for Uz, Initial residual = 0.0041177, Final residual = 5.99576e-05, No Iterations 1
DILUPBiCGStab:  Solving for T, Initial residual = 0.349478, Final residual = 0.0111897, No Iterations 1
DICPCG:  Solving for p_rgh, Initial residual = 2.25502e-12, Final residual = 2.25502e-12, No Iterations 0
time step continuity errors : sum local = 7.4715e-12, global = -5.8036e-28, cumulative = 5.32903e-29
DILUPBiCGStab:  Solving for epsilon, Initial residual = 0.0223472, Final residual = 0.000352398, No Iterations 1
bounding epsilon, min: 9.29912e-23 max: 9.07643e-08 average: 5.46573e-09
DILUPBiCGStab:  Solving for k, Initial residual = 0.0168889, Final residual = 0.0002734, No Iterations 1
bounding k, min: 3.05929e-16 max: 2.88901e-05 average: 7.85898e-06
ExecutionTime = 9.15 s  ClockTime = 10 s

Time = 424

DILUPBiCGStab:  Solving for Ux, Initial residual = 0.00413906, Final residual = 5.9263e-05, No Iterations 1
DILUPBiCGStab:  Solving for Uy, Initial residual = 0.00374964, Final residual = 5.34073e-05, No Iterations 1
DILUPBiCGStab:  Solving for Uz, Initial residual = 0.00422421, Final residual = 6.07275e-05, No Iterations 1
DILUPBiCGStab:  Solving for T, Initial residual = 0.345866, Final residual = 0.0111632, No Iterations 1
DICPCG:  Solving for p_rgh, Initial residual = 2.26475e-12, Final residual = 2.26475e-12, No Iterations 0
time step continuity errors : sum local = 7.49473e-12, global = 1.79002e-27, cumulative = 1.84331e-27
DILUPBiCGStab:  Solving for epsilon, Initial residual = 0.022338, Final residual = 0.000352261, No Iterations 1
bounding epsilon, min: 9.29912e-23 max: 8.84277e-08 average: 5.32588e-09
DILUPBiCGStab:  Solving for k, Initial residual = 0.0168841, Final residual = 0.000273327, No Iterations 1
bounding k, min: 3.05929e-16 max: 2.84012e-05 average: 7.72396e-06
ExecutionTime = 9.5 s  ClockTime = 11 s

Time = 425

DILUPBiCGStab:  Solving for Ux, Initial residual = 0.00411801, Final residual = 5.84041e-05, No Iterations 1
DILUPBiCGStab:  Solving for Uy, Initial residual = 0.00377205, Final residual = 5.37597e-05, No Iterations 1
DILUPBiCGStab:  Solving for Uz, Initial residual = 0.00420094, Final residual = 6.04172e-05, No Iterations 1
DILUPBiCGStab:  Solving for T, Initial residual = 0.336935, Final residual = 0.0107602, No Iterations 1
DICPCG:  Solving for p_rgh, Initial residual = 2.2594e-12, Final residual = 2.2594e-12, No Iterations 0
time step continuity errors : sum local = 7.48677e-12, global = 2.00253e-27, cumulative = 3.84584e-27
DILUPBiCGStab:  Solving for epsilon, Initial residual = 0.0223289, Final residual = 0.000352124, No Iterations 1
bounding epsilon, min: 9.29912e-23 max: 8.61513e-08 average: 5.1896e-09
DILUPBiCGStab:  Solving for k, Initial residual = 0.0168793, Final residual = 0.000273254, No Iterations 1
bounding k, min: 3.05928e-16 max: 2.79206e-05 average: 7.59126e-06
ExecutionTime = 9.84 s  ClockTime = 11 s

Time = 426

DILUPBiCGStab:  Solving for Ux, Initial residual = 0.00407713, Final residual = 5.92917e-05, No Iterations 1
DILUPBiCGStab:  Solving for Uy, Initial residual = 0.0036736, Final residual = 5.28122e-05, No Iterations 1
DILUPBiCGStab:  Solving for Uz, Initial residual = 0.00420403, Final residual = 6.05125e-05, No Iterations 1
DILUPBiCGStab:  Solving for T, Initial residual = 0.337616, Final residual = 0.0108782, No Iterations 1
DICPCG:  Solving for p_rgh, Initial residual = 2.27801e-12, Final residual = 2.27801e-12, No Iterations 0
time step continuity errors : sum local = 7.52634e-12, global = 1.70291e-27, cumulative = 5.54874e-27
DILUPBiCGStab:  Solving for epsilon, Initial residual = 0.0223197, Final residual = 0.000351986, No Iterations 1
bounding epsilon, min: 9.29912e-23 max: 8.39335e-08 average: 5.05682e-09
DILUPBiCGStab:  Solving for k, Initial residual = 0.0168745, Final residual = 0.000273181, No Iterations 1
bounding k, min: 3.05928e-16 max: 2.7448e-05 average: 7.46084e-06
ExecutionTime = 10.19 s  ClockTime = 11 s

Time = 427

DILUPBiCGStab:  Solving for Ux, Initial residual = 0.00418162, Final residual = 6.06817e-05, No Iterations 1
DILUPBiCGStab:  Solving for Uy, Initial residual = 0.0037517, Final residual = 5.29146e-05, No Iterations 1
DILUPBiCGStab:  Solving for Uz, Initial residual = 0.00421744, Final residual = 6.13623e-05, No Iterations 1
DILUPBiCGStab:  Solving for T, Initial residual = 0.335107, Final residual = 0.0108937, No Iterations 1
DICPCG:  Solving for p_rgh, Initial residual = 2.2769e-12, Final residual = 2.2769e-12, No Iterations 0
time step continuity errors : sum local = 7.53985e-12, global = -7.94899e-28, cumulative = 4.75384e-27
DILUPBiCGStab:  Solving for epsilon, Initial residual = 0.0223105, Final residual = 0.000351848, No Iterations 1
bounding epsilon, min: 9.29912e-23 max: 8.17729e-08 average: 4.92744e-09
DILUPBiCGStab:  Solving for k, Initial residual = 0.0168696, Final residual = 0.000273108, No Iterations 1
bounding k, min: 3.05928e-16 max: 2.69834e-05 average: 7.33265e-06
ExecutionTime = 10.53 s  ClockTime = 12 s

Time = 428

DILUPBiCGStab:  Solving for Ux, Initial residual = 0.00428181, Final residual = 6.09981e-05, No Iterations 1
DILUPBiCGStab:  Solving for Uy, Initial residual = 0.00389872, Final residual = 5.4671e-05, No Iterations 1
DILUPBiCGStab:  Solving for Uz, Initial residual = 0.00444421, Final residual = 6.42574e-05, No Iterations 1
DILUPBiCGStab:  Solving for T, Initial residual = 0.341827, Final residual = 0.0108547, No Iterations 1
DICPCG:  Solving for p_rgh, Initial residual = 2.27878e-12, Final residual = 2.27878e-12, No Iterations 0
time step continuity errors : sum local = 7.56429e-12, global = 1.03056e-27, cumulative = 5.7844e-27
DILUPBiCGStab:  Solving for epsilon, Initial residual = 0.0223013, Final residual = 0.000351709, No Iterations 1
bounding epsilon, min: 9.29912e-23 max: 7.96679e-08 average: 4.80136e-09
DILUPBiCGStab:  Solving for k, Initial residual = 0.0168648, Final residual = 0.000273034, No Iterations 1
bounding k, min: 3.05928e-16 max: 2.65267e-05 average: 7.20667e-06
ExecutionTime = 10.88 s  ClockTime = 12 s

Time = 429

DILUPBiCGStab:  Solving for Ux, Initial residual = 0.00432386, Final residual = 6.19633e-05, No Iterations 1
DILUPBiCGStab:  Solving for Uy, Initial residual = 0.00388766, Final residual = 5.41714e-05, No Iterations 1
DILUPBiCGStab:  Solving for Uz, Initial residual = 0.00448948, Final residual = 6.44944e-05, No Iterations 1
DILUPBiCGStab:  Solving for T, Initial residual = 0.340723, Final residual = 0.0109973, No Iterations 1
DICPCG:  Solving for p_rgh, Initial residual = 2.28511e-12, Final residual = 2.28511e-12, No Iterations 0
time step continuity errors : sum local = 7.56669e-12, global = -2.52613e-28, cumulative = 5.53179e-27
DILUPBiCGStab:  Solving for epsilon, Initial residual = 0.0222921, Final residual = 0.000351569, No Iterations 1
bounding epsilon, min: 9.29912e-23 max: 7.76172e-08 average: 4.67852e-09
DILUPBiCGStab:  Solving for k, Initial residual = 0.0168599, Final residual = 0.00027296, No Iterations 1
bounding k, min: 3.05928e-16 max: 2.60776e-05 average: 7.08285e-06
ExecutionTime = 11.22 s  ClockTime = 13 s

Time = 430

DILUPBiCGStab:  Solving for Ux, Initial residual = 0.00431972, Final residual = 6.21827e-05, No Iterations 1
DILUPBiCGStab:  Solving for Uy, Initial residual = 0.00384032, Final residual = 5.44208e-05, No Iterations 1
DILUPBiCGStab:  Solving for Uz, Initial residual = 0.00449585, Final residual = 6.47248e-05, No Iterations 1
DILUPBiCGStab:  Solving for T, Initial residual = 0.337386, Final residual = 0.0109889, No Iterations 1
DICPCG:  Solving for p_rgh, Initial residual = 2.28114e-12, Final residual = 2.28114e-12, No Iterations 0
time step continuity errors : sum local = 7.55343e-12, global = -5.50713e-28, cumulative = 4.98107e-27
DILUPBiCGStab:  Solving for epsilon, Initial residual = 0.0222828, Final residual = 0.00035143, No Iterations 1
bounding epsilon, min: 9.29912e-23 max: 7.56193e-08 average: 4.55882e-09
DILUPBiCGStab:  Solving for k, Initial residual = 0.016855, Final residual = 0.000272886, No Iterations 1
bounding k, min: 3.05927e-16 max: 2.56362e-05 average: 6.96116e-06
ExecutionTime = 11.58 s  ClockTime = 13 s

Time = 431

DILUPBiCGStab:  Solving for Ux, Initial residual = 0.00437061, Final residual = 6.14461e-05, No Iterations 1
DILUPBiCGStab:  Solving for Uy, Initial residual = 0.00392167, Final residual = 5.52177e-05, No Iterations 1
DILUPBiCGStab:  Solving for Uz, Initial residual = 0.0045527, Final residual = 6.49558e-05, No Iterations 1
DILUPBiCGStab:  Solving for T, Initial residual = 0.342544, Final residual = 0.0107765, No Iterations 1
DICPCG:  Solving for p_rgh, Initial residual = 2.28286e-12, Final residual = 2.28286e-12, No Iterations 0
time step continuity errors : sum local = 7.57092e-12, global = -4.88169e-28, cumulative = 4.49291e-27
DILUPBiCGStab:  Solving for epsilon, Initial residual = 0.0222735, Final residual = 0.000351289, No Iterations 1
bounding epsilon, min: 9.29912e-23 max: 7.36728e-08 average: 4.44218e-09
DILUPBiCGStab:  Solving for k, Initial residual = 0.0168502, Final residual = 0.000272811, No Iterations 1
bounding k, min: 3.05927e-16 max: 2.52021e-05 average: 6.84155e-06
ExecutionTime = 11.94 s  ClockTime = 13 s

Time = 432

DILUPBiCGStab:  Solving for Ux, Initial residual = 0.00432765, Final residual = 6.20211e-05, No Iterations 1
DILUPBiCGStab:  Solving for Uy, Initial residual = 0.00394117, Final residual = 5.48782e-05, No Iterations 1
DILUPBiCGStab:  Solving for Uz, Initial residual = 0.00455662, Final residual = 6.44598e-05, No Iterations 1
DILUPBiCGStab:  Solving for T, Initial residual = 0.332864, Final residual = 0.0107112, No Iterations 1
DICPCG:  Solving for p_rgh, Initial residual = 2.29553e-12, Final residual = 2.29553e-12, No Iterations 0
time step continuity errors : sum local = 7.60064e-12, global = 2.05401e-27, cumulative = 6.54691e-27
DILUPBiCGStab:  Solving for epsilon, Initial residual = 0.0222641, Final residual = 0.000351148, No Iterations 1
bounding epsilon, min: 9.29912e-23 max: 7.17765e-08 average: 4.32853e-09
DILUPBiCGStab:  Solving for k, Initial residual = 0.0168452, Final residual = 0.000272736, No Iterations 1
bounding k, min: 3.05927e-16 max: 2.47754e-05 average: 6.724e-06
ExecutionTime = 12.3 s  ClockTime = 14 s

Time = 433

DILUPBiCGStab:  Solving for Ux, Initial residual = 0.00441696, Final residual = 6.22235e-05, No Iterations 1
DILUPBiCGStab:  Solving for Uy, Initial residual = 0.00398051, Final residual = 5.57219e-05, No Iterations 1
DILUPBiCGStab:  Solving for Uz, Initial residual = 0.00464595, Final residual = 6.66621e-05, No Iterations 1
DILUPBiCGStab:  Solving for T, Initial residual = 0.3415, Final residual = 0.010984, No Iterations 1
DICPCG:  Solving for p_rgh, Initial residual = 2.29949e-12, Final residual = 2.29949e-12, No Iterations 0
time step continuity errors : sum local = 7.60546e-12, global = -1.92668e-27, cumulative = 4.62023e-27
DILUPBiCGStab:  Solving for epsilon, Initial residual = 0.0222547, Final residual = 0.000351006, No Iterations 1
bounding epsilon, min: 9.29912e-23 max: 6.9929e-08 average: 4.21779e-09
DILUPBiCGStab:  Solving for k, Initial residual = 0.0168403, Final residual = 0.000272661, No Iterations 1
bounding k, min: 3.05927e-16 max: 2.43559e-05 average: 6.60847e-06
ExecutionTime = 12.66 s  ClockTime = 14 s

Time = 434

DILUPBiCGStab:  Solving for Ux, Initial residual = 0.00460313, Final residual = 6.34076e-05, No Iterations 1
DILUPBiCGStab:  Solving for Uy, Initial residual = 0.00412358, Final residual = 5.67168e-05, No Iterations 1
DILUPBiCGStab:  Solving for Uz, Initial residual = 0.00478444, Final residual = 6.69888e-05, No Iterations 1
DILUPBiCGStab:  Solving for T, Initial residual = 0.340832, Final residual = 0.0107243, No Iterations 1
DICPCG:  Solving for p_rgh, Initial residual = 2.30974e-12, Final residual = 2.30974e-12, No Iterations 0
time step continuity errors : sum local = 7.63814e-12, global = 1.86698e-27, cumulative = 6.48721e-27
DILUPBiCGStab:  Solving for epsilon, Initial residual = 0.0222453, Final residual = 0.000350864, No Iterations 1
bounding epsilon, min: 9.29912e-23 max: 6.81291e-08 average: 4.10988e-09
DILUPBiCGStab:  Solving for k, Initial residual = 0.0168354, Final residual = 0.000272585, No Iterations 1
bounding k, min: 3.05927e-16 max: 2.39435e-05 average: 6.49492e-06
ExecutionTime = 13.02 s  ClockTime = 14 s

Time = 435

DILUPBiCGStab:  Solving for Ux, Initial residual = 0.00454269, Final residual = 6.40338e-05, No Iterations 1
DILUPBiCGStab:  Solving for Uy, Initial residual = 0.00401868, Final residual = 5.56626e-05, No Iterations 1
DILUPBiCGStab:  Solving for Uz, Initial residual = 0.00470835, Final residual = 6.7386e-05, No Iterations 1
DILUPBiCGStab:  Solving for T, Initial residual = 0.341473, Final residual = 0.0110106, No Iterations 1
DICPCG:  Solving for p_rgh, Initial residual = 2.31573e-12, Final residual = 2.31573e-12, No Iterations 0
time step continuity errors : sum local = 7.67295e-12, global = -3.43993e-28, cumulative = 6.14322e-27
DILUPBiCGStab:  Solving for epsilon, Initial residual = 0.0222358, Final residual = 0.000350721, No Iterations 1
bounding epsilon, min: 9.29912e-23 max: 6.63755e-08 average: 4.00473e-09
DILUPBiCGStab:  Solving for k, Initial residual = 0.0168304, Final residual = 0.000272509, No Iterations 1
bounding k, min: 3.05927e-16 max: 2.3538e-05 average: 6.38333e-06
ExecutionTime = 13.39 s  ClockTime = 15 s

Time = 436

DILUPBiCGStab:  Solving for Ux, Initial residual = 0.00456298, Final residual = 6.30372e-05, No Iterations 1
DILUPBiCGStab:  Solving for Uy, Initial residual = 0.00414259, Final residual = 5.90609e-05, No Iterations 1
DILUPBiCGStab:  Solving for Uz, Initial residual = 0.00479206, Final residual = 6.84271e-05, No Iterations 1
DILUPBiCGStab:  Solving for T, Initial residual = 0.337598, Final residual = 0.0107945, No Iterations 1
DICPCG:  Solving for p_rgh, Initial residual = 2.32855e-12, Final residual = 2.32855e-12, No Iterations 0
time step continuity errors : sum local = 7.70928e-12, global = -7.60682e-28, cumulative = 5.38253e-27
DILUPBiCGStab:  Solving for epsilon, Initial residual = 0.0222264, Final residual = 0.000350577, No Iterations 1
bounding epsilon, min: 9.29912e-23 max: 6.46671e-08 average: 3.90227e-09
DILUPBiCGStab:  Solving for k, Initial residual = 0.0168254, Final residual = 0.000272432, No Iterations 1
bounding k, min: 3.05926e-16 max: 2.31394e-05 average: 6.27364e-06
ExecutionTime = 13.74 s  ClockTime = 15 s

Time = 437

DILUPBiCGStab:  Solving for Ux, Initial residual = 0.0046348, Final residual = 6.43923e-05, No Iterations 1
DILUPBiCGStab:  Solving for Uy, Initial residual = 0.00410764, Final residual = 5.73631e-05, No Iterations 1
DILUPBiCGStab:  Solving for Uz, Initial residual = 0.00483078, Final residual = 6.71592e-05, No Iterations 1
DILUPBiCGStab:  Solving for T, Initial residual = 0.339785, Final residual = 0.0108011, No Iterations 1
DICPCG:  Solving for p_rgh, Initial residual = 2.33027e-12, Final residual = 2.33027e-12, No Iterations 0
time step continuity errors : sum local = 7.71484e-12, global = -7.58652e-28, cumulative = 4.62388e-27
DILUPBiCGStab:  Solving for epsilon, Initial residual = 0.0222168, Final residual = 0.000350433, No Iterations 1
bounding epsilon, min: 9.29912e-23 max: 6.30027e-08 average: 3.80244e-09
DILUPBiCGStab:  Solving for k, Initial residual = 0.0168204, Final residual = 0.000272355, No Iterations 1
bounding k, min: 3.05926e-16 max: 2.27474e-05 average: 6.16584e-06
ExecutionTime = 14.14 s  ClockTime = 16 s

Time = 438

DILUPBiCGStab:  Solving for Ux, Initial residual = 0.00462904, Final residual = 6.48606e-05, No Iterations 1
DILUPBiCGStab:  Solving for Uy, Initial residual = 0.00417603, Final residual = 5.82665e-05, No Iterations 1
DILUPBiCGStab:  Solving for Uz, Initial residual = 0.00484977, Final residual = 6.79405e-05, No Iterations 1
DILUPBiCGStab:  Solving for T, Initial residual = 0.337243, Final residual = 0.0111189, No Iterations 1
DICPCG:  Solving for p_rgh, Initial residual = 2.35775e-12, Final residual = 2.35775e-12, No Iterations 0
time step continuity errors : sum local = 7.80245e-12, global = -1.20702e-27, cumulative = 3.41686e-27
DILUPBiCGStab:  Solving for epsilon, Initial residual = 0.0222073, Final residual = 0.000350288, No Iterations 1
bounding epsilon, min: 9.29912e-23 max: 6.13811e-08 average: 3.70516e-09
DILUPBiCGStab:  Solving for k, Initial residual = 0.0168154, Final residual = 0.000272278, No Iterations 1
bounding k, min: 3.05926e-16 max: 2.23621e-05 average: 6.05989e-06
ExecutionTime = 14.51 s  ClockTime = 16 s

Time = 439

DILUPBiCGStab:  Solving for Ux, Initial residual = 0.00477642, Final residual = 6.7274e-05, No Iterations 1
DILUPBiCGStab:  Solving for Uy, Initial residual = 0.00427226, Final residual = 6.11708e-05, No Iterations 1
DILUPBiCGStab:  Solving for Uz, Initial residual = 0.00494307, Final residual = 7.03246e-05, No Iterations 1
DILUPBiCGStab:  Solving for T, Initial residual = 0.343413, Final residual = 0.0112896, No Iterations 1
DICPCG:  Solving for p_rgh, Initial residual = 2.36059e-12, Final residual = 2.36059e-12, No Iterations 0
time step continuity errors : sum local = 7.81153e-12, global = 1.79916e-28, cumulative = 3.59678e-27
DILUPBiCGStab:  Solving for epsilon, Initial residual = 0.0221977, Final residual = 0.000350142, No Iterations 1
bounding epsilon, min: 9.29912e-23 max: 5.98013e-08 average: 3.61037e-09
DILUPBiCGStab:  Solving for k, Initial residual = 0.0168104, Final residual = 0.000272201, No Iterations 1
bounding k, min: 3.05926e-16 max: 2.19834e-05 average: 5.95576e-06
ExecutionTime = 14.89 s  ClockTime = 16 s

Time = 440

DILUPBiCGStab:  Solving for Ux, Initial residual = 0.00468639, Final residual = 6.55319e-05, No Iterations 1
DILUPBiCGStab:  Solving for Uy, Initial residual = 0.00420063, Final residual = 5.88266e-05, No Iterations 1
DILUPBiCGStab:  Solving for Uz, Initial residual = 0.00495603, Final residual = 6.99976e-05, No Iterations 1
DILUPBiCGStab:  Solving for T, Initial residual = 0.339538, Final residual = 0.0110087, No Iterations 1
DICPCG:  Solving for p_rgh, Initial residual = 2.37656e-12, Final residual = 2.37656e-12, No Iterations 0
time step continuity errors : sum local = 7.8796e-12, global = -2.4116e-27, cumulative = 1.18518e-27
DILUPBiCGStab:  Solving for epsilon, Initial residual = 0.022188, Final residual = 0.000349996, No Iterations 1
bounding epsilon, min: 9.29912e-23 max: 5.82622e-08 average: 3.518e-09
DILUPBiCGStab:  Solving for k, Initial residual = 0.0168053, Final residual = 0.000272123, No Iterations 1
bounding k, min: 3.05926e-16 max: 2.16109e-05 average: 5.85342e-06
ExecutionTime = 15.29 s  ClockTime = 17 s

Time = 441

DILUPBiCGStab:  Solving for Ux, Initial residual = 0.00474214, Final residual = 6.60075e-05, No Iterations 1
DILUPBiCGStab:  Solving for Uy, Initial residual = 0.00426333, Final residual = 5.99462e-05, No Iterations 1
DILUPBiCGStab:  Solving for Uz, Initial residual = 0.0050267, Final residual = 7.09603e-05, No Iterations 1
DILUPBiCGStab:  Solving for T, Initial residual = 0.344901, Final residual = 0.0108934, No Iterations 1
DICPCG:  Solving for p_rgh, Initial residual = 2.38551e-12, Final residual = 2.38551e-12, No Iterations 0
time step continuity errors : sum local = 7.88978e-12, global = 2.13503e-27, cumulative = 3.3202e-27
DILUPBiCGStab:  Solving for epsilon, Initial residual = 0.0221783, Final residual = 0.000349849, No Iterations 1
bounding epsilon, min: 9.29912e-23 max: 5.67626e-08 average: 3.428e-09
DILUPBiCGStab:  Solving for k, Initial residual = 0.0168002, Final residual = 0.000272044, No Iterations 1
bounding k, min: 3.05926e-16 max: 2.12448e-05 average: 5.75284e-06
ExecutionTime = 15.72 s  ClockTime = 17 s

Time = 442

DILUPBiCGStab:  Solving for Ux, Initial residual = 0.00473264, Final residual = 6.6799e-05, No Iterations 1
DILUPBiCGStab:  Solving for Uy, Initial residual = 0.00421667, Final residual = 5.96299e-05, No Iterations 1
DILUPBiCGStab:  Solving for Uz, Initial residual = 0.00488781, Final residual = 6.96861e-05, No Iterations 1
DILUPBiCGStab:  Solving for T, Initial residual = 0.344571, Final residual = 0.0110789, No Iterations 1
DICPCG:  Solving for p_rgh, Initial residual = 2.39894e-12, Final residual = 2.39894e-12, No Iterations 0
time step continuity errors : sum local = 7.93848e-12, global = -1.64554e-27, cumulative = 1.67466e-27
DILUPBiCGStab:  Solving for epsilon, Initial residual = 0.0221686, Final residual = 0.000349702, No Iterations 1
bounding epsilon, min: 9.29912e-23 max: 5.53017e-08 average: 3.3403e-09
DILUPBiCGStab:  Solving for k, Initial residual = 0.0167951, Final residual = 0.000271966, No Iterations 1
bounding k, min: 3.05926e-16 max: 2.08849e-05 average: 5.65398e-06
ExecutionTime = 16.07 s  ClockTime = 18 s

Time = 443

DILUPBiCGStab:  Solving for Ux, Initial residual = 0.00488009, Final residual = 6.78918e-05, No Iterations 1
DILUPBiCGStab:  Solving for Uy, Initial residual = 0.00429707, Final residual = 5.93188e-05, No Iterations 1
DILUPBiCGStab:  Solving for Uz, Initial residual = 0.00510591, Final residual = 7.07298e-05, No Iterations 1
DILUPBiCGStab:  Solving for T, Initial residual = 0.342908, Final residual = 0.0110853, No Iterations 1
DICPCG:  Solving for p_rgh, Initial residual = 2.39775e-12, Final residual = 2.39775e-12, No Iterations 0
time step continuity errors : sum local = 7.93963e-12, global = -2.67396e-27, cumulative = -9.99298e-28
DILUPBiCGStab:  Solving for epsilon, Initial residual = 0.0221589, Final residual = 0.000349553, No Iterations 1
bounding epsilon, min: 9.29912e-23 max: 5.38784e-08 average: 3.25484e-09
DILUPBiCGStab:  Solving for k, Initial residual = 0.01679, Final residual = 0.000271886, No Iterations 1
bounding k, min: 3.05926e-16 max: 2.0531e-05 average: 5.55682e-06
ExecutionTime = 16.41 s  ClockTime = 18 s

Time = 444

DILUPBiCGStab:  Solving for Ux, Initial residual = 0.0048614, Final residual = 6.82743e-05, No Iterations 1
DILUPBiCGStab:  Solving for Uy, Initial residual = 0.00425923, Final residual = 5.94796e-05, No Iterations 1
DILUPBiCGStab:  Solving for Uz, Initial residual = 0.00507099, Final residual = 7.05062e-05, No Iterations 1
DILUPBiCGStab:  Solving for T, Initial residual = 0.340086, Final residual = 0.0110307, No Iterations 1
DICPCG:  Solving for p_rgh, Initial residual = 2.39245e-12, Final residual = 2.39245e-12, No Iterations 0
time step continuity errors : sum local = 7.92702e-12, global = -2.14234e-27, cumulative = -3.14164e-27
DILUPBiCGStab:  Solving for epsilon, Initial residual = 0.0221491, Final residual = 0.000349404, No Iterations 1
bounding epsilon, min: 9.29912e-23 max: 5.24917e-08 average: 3.17158e-09
DILUPBiCGStab:  Solving for k, Initial residual = 0.0167849, Final residual = 0.000271807, No Iterations 1
bounding k, min: 3.05926e-16 max: 2.01831e-05 average: 5.46132e-06
ExecutionTime = 16.75 s  ClockTime = 18 s

Time = 445

DILUPBiCGStab:  Solving for Ux, Initial residual = 0.00494301, Final residual = 6.8459e-05, No Iterations 1
DILUPBiCGStab:  Solving for Uy, Initial residual = 0.00440178, Final residual = 6.0128e-05, No Iterations 1
DILUPBiCGStab:  Solving for Uz, Initial residual = 0.00512889, Final residual = 7.08748e-05, No Iterations 1
DILUPBiCGStab:  Solving for T, Initial residual = 0.334998, Final residual = 0.0110482, No Iterations 1
DICPCG:  Solving for p_rgh, Initial residual = 2.40858e-12, Final residual = 2.40858e-12, No Iterations 0
time step continuity errors : sum local = 7.97417e-12, global = -8.82319e-28, cumulative = -4.02396e-27
DILUPBiCGStab:  Solving for epsilon, Initial residual = 0.0221392, Final residual = 0.000349255, No Iterations 1
bounding epsilon, min: 9.29912e-23 max: 5.11407e-08 average: 3.09044e-09
DILUPBiCGStab:  Solving for k, Initial residual = 0.0167797, Final residual = 0.000271727, No Iterations 1
bounding k, min: 3.05925e-16 max: 1.98411e-05 average: 5.36747e-06
ExecutionTime = 17.09 s  ClockTime = 19 s

Time = 446

DILUPBiCGStab:  Solving for Ux, Initial residual = 0.00486377, Final residual = 6.76049e-05, No Iterations 1
DILUPBiCGStab:  Solving for Uy, Initial residual = 0.00437745, Final residual = 6.10719e-05, No Iterations 1
DILUPBiCGStab:  Solving for Uz, Initial residual = 0.00514168, Final residual = 7.08626e-05, No Iterations 1
DILUPBiCGStab:  Solving for T, Initial residual = 0.342255, Final residual = 0.0108544, No Iterations 1
DICPCG:  Solving for p_rgh, Initial residual = 2.4209e-12, Final residual = 2.4209e-12, No Iterations 0
time step continuity errors : sum local = 8.01897e-12, global = -1.81845e-27, cumulative = -5.8424e-27
DILUPBiCGStab:  Solving for epsilon, Initial residual = 0.0221293, Final residual = 0.000349104, No Iterations 1
bounding epsilon, min: 9.29912e-23 max: 4.98244e-08 average: 3.01137e-09
DILUPBiCGStab:  Solving for k, Initial residual = 0.0167745, Final residual = 0.000271647, No Iterations 1
bounding k, min: 3.05925e-16 max: 1.95048e-05 average: 5.27522e-06
ExecutionTime = 17.44 s  ClockTime = 19 s

Time = 447

DILUPBiCGStab:  Solving for Ux, Initial residual = 0.00504147, Final residual = 6.9307e-05, No Iterations 1
DILUPBiCGStab:  Solving for Uy, Initial residual = 0.00446116, Final residual = 6.15222e-05, No Iterations 1
DILUPBiCGStab:  Solving for Uz, Initial residual = 0.00533168, Final residual = 7.27306e-05, No Iterations 1
DILUPBiCGStab:  Solving for T, Initial residual = 0.336622, Final residual = 0.0109378, No Iterations 1
DICPCG:  Solving for p_rgh, Initial residual = 2.41324e-12, Final residual = 2.41324e-12, No Iterations 0
time step continuity errors : sum local = 7.99403e-12, global = 1.90536e-27, cumulative = -3.93704e-27
DILUPBiCGStab:  Solving for epsilon, Initial residual = 0.0221194, Final residual = 0.000348953, No Iterations 1
bounding epsilon, min: 9.29912e-23 max: 4.85421e-08 average: 2.93433e-09
DILUPBiCGStab:  Solving for k, Initial residual = 0.0167693, Final residual = 0.000271566, No Iterations 1
bounding k, min: 3.05925e-16 max: 1.91743e-05 average: 5.18456e-06
ExecutionTime = 17.78 s  ClockTime = 19 s

Time = 448

DILUPBiCGStab:  Solving for Ux, Initial residual = 0.00504051, Final residual = 6.94532e-05, No Iterations 1
DILUPBiCGStab:  Solving for Uy, Initial residual = 0.00437135, Final residual = 5.9931e-05, No Iterations 1
DILUPBiCGStab:  Solving for Uz, Initial residual = 0.00532394, Final residual = 7.30838e-05, No Iterations 1
DILUPBiCGStab:  Solving for T, Initial residual = 0.342333, Final residual = 0.0109904, No Iterations 1
DICPCG:  Solving for p_rgh, Initial residual = 2.39669e-12, Final residual = 2.39669e-12, No Iterations 0
time step continuity errors : sum local = 7.93347e-12, global = -4.31717e-28, cumulative = -4.36876e-27
DILUPBiCGStab:  Solving for epsilon, Initial residual = 0.0221095, Final residual = 0.000348801, No Iterations 1
bounding epsilon, min: 9.29912e-23 max: 4.72927e-08 average: 2.85927e-09
DILUPBiCGStab:  Solving for k, Initial residual = 0.0167641, Final residual = 0.000271485, No Iterations 1
bounding k, min: 3.05925e-16 max: 1.88493e-05 average: 5.09546e-06
ExecutionTime = 18.12 s  ClockTime = 20 s

Time = 449

DILUPBiCGStab:  Solving for Ux, Initial residual = 0.00511196, Final residual = 6.99922e-05, No Iterations 1
DILUPBiCGStab:  Solving for Uy, Initial residual = 0.0045088, Final residual = 6.16381e-05, No Iterations 1
DILUPBiCGStab:  Solving for Uz, Initial residual = 0.00536449, Final residual = 7.38349e-05, No Iterations 1
DILUPBiCGStab:  Solving for T, Initial residual = 0.339462, Final residual = 0.0109996, No Iterations 1
DICPCG:  Solving for p_rgh, Initial residual = 2.42098e-12, Final residual = 2.42098e-12, No Iterations 0
time step continuity errors : sum local = 8.0297e-12, global = 1.56563e-28, cumulative = -4.2122e-27
DILUPBiCGStab:  Solving for epsilon, Initial residual = 0.0220994, Final residual = 0.000348648, No Iterations 1
bounding epsilon, min: 9.29912e-23 max: 4.60755e-08 average: 2.78612e-09
DILUPBiCGStab:  Solving for k, Initial residual = 0.0167588, Final residual = 0.000271403, No Iterations 1
bounding k, min: 3.05924e-16 max: 1.85298e-05 average: 5.00788e-06
ExecutionTime = 18.47 s  ClockTime = 20 s

Time = 450

DILUPBiCGStab:  Solving for Ux, Initial residual = 0.00519668, Final residual = 7.29813e-05, No Iterations 1
DILUPBiCGStab:  Solving for Uy, Initial residual = 0.00452697, Final residual = 6.275e-05, No Iterations 1
DILUPBiCGStab:  Solving for Uz, Initial residual = 0.00555164, Final residual = 7.83603e-05, No Iterations 1
DILUPBiCGStab:  Solving for T, Initial residual = 0.339284, Final residual = 0.0110457, No Iterations 1
DICPCG:  Solving for p_rgh, Initial residual = 2.43306e-12, Final residual = 2.43306e-12, No Iterations 0
time step continuity errors : sum local = 8.05464e-12, global = -1.48035e-27, cumulative = -5.69254e-27
DILUPBiCGStab:  Solving for epsilon, Initial residual = 0.0220894, Final residual = 0.000348495, No Iterations 1
bounding epsilon, min: 9.29912e-23 max: 4.48896e-08 average: 2.71484e-09
DILUPBiCGStab:  Solving for k, Initial residual = 0.0167536, Final residual = 0.000271321, No Iterations 1
bounding k, min: 3.05924e-16 max: 1.82157e-05 average: 4.92181e-06
ExecutionTime = 18.81 s  ClockTime = 20 s

Time = 451

DILUPBiCGStab:  Solving for Ux, Initial residual = 0.00519565, Final residual = 7.24907e-05, No Iterations 1
DILUPBiCGStab:  Solving for Uy, Initial residual = 0.00461703, Final residual = 6.37685e-05, No Iterations 1
DILUPBiCGStab:  Solving for Uz, Initial residual = 0.00556531, Final residual = 7.68521e-05, No Iterations 1
DILUPBiCGStab:  Solving for T, Initial residual = 0.331526, Final residual = 0.0106965, No Iterations 1
DICPCG:  Solving for p_rgh, Initial residual = 2.44595e-12, Final residual = 2.44595e-12, No Iterations 0
time step continuity errors : sum local = 8.09521e-12, global = 6.62399e-28, cumulative = -5.03014e-27
DILUPBiCGStab:  Solving for epsilon, Initial residual = 0.0220793, Final residual = 0.000348341, No Iterations 1
bounding epsilon, min: 9.29912e-23 max: 4.37343e-08 average: 2.64539e-09
DILUPBiCGStab:  Solving for k, Initial residual = 0.0167483, Final residual = 0.000271238, No Iterations 1
bounding k, min: 3.05924e-16 max: 1.79069e-05 average: 4.83722e-06
ExecutionTime = 19.15 s  ClockTime = 21 s

Time = 452

DILUPBiCGStab:  Solving for Ux, Initial residual = 0.00518135, Final residual = 7.07518e-05, No Iterations 1
DILUPBiCGStab:  Solving for Uy, Initial residual = 0.00453656, Final residual = 6.24352e-05, No Iterations 1
DILUPBiCGStab:  Solving for Uz, Initial residual = 0.00558359, Final residual = 7.81288e-05, No Iterations 1
DILUPBiCGStab:  Solving for T, Initial residual = 0.338731, Final residual = 0.0108309, No Iterations 1
DICPCG:  Solving for p_rgh, Initial residual = 2.46484e-12, Final residual = 2.46484e-12, No Iterations 0
time step continuity errors : sum local = 8.16271e-12, global = -1.99897e-27, cumulative = -7.02912e-27
DILUPBiCGStab:  Solving for epsilon, Initial residual = 0.0220691, Final residual = 0.000348186, No Iterations 1
bounding epsilon, min: 9.29912e-23 max: 4.26086e-08 average: 2.57771e-09
DILUPBiCGStab:  Solving for k, Initial residual = 0.0167429, Final residual = 0.000271155, No Iterations 1
bounding k, min: 3.05924e-16 max: 1.76033e-05 average: 4.75407e-06
ExecutionTime = 19.49 s  ClockTime = 21 s

Time = 453

DILUPBiCGStab:  Solving for Ux, Initial residual = 0.00537202, Final residual = 7.43252e-05, No Iterations 1
DILUPBiCGStab:  Solving for Uy, Initial residual = 0.00467999, Final residual = 6.34246e-05, No Iterations 1
DILUPBiCGStab:  Solving for Uz, Initial residual = 0.00573545, Final residual = 7.96165e-05, No Iterations 1
DILUPBiCGStab:  Solving for T, Initial residual = 0.345163, Final residual = 0.0111541, No Iterations 1
DICPCG:  Solving for p_rgh, Initial residual = 2.47587e-12, Final residual = 2.47587e-12, No Iterations 0
time step continuity errors : sum local = 8.1869e-12, global = 2.24225e-27, cumulative = -4.78687e-27
DILUPBiCGStab:  Solving for epsilon, Initial residual = 0.0220589, Final residual = 0.00034803, No Iterations 1
bounding epsilon, min: 9.29912e-23 max: 4.15119e-08 average: 2.51177e-09
DILUPBiCGStab:  Solving for k, Initial residual = 0.0167376, Final residual = 0.000271072, No Iterations 1
bounding k, min: 3.05923e-16 max: 1.73048e-05 average: 4.67236e-06
ExecutionTime = 19.83 s  ClockTime = 21 s

Time = 454

DILUPBiCGStab:  Solving for Ux, Initial residual = 0.00563543, Final residual = 7.7696e-05, No Iterations 1
DILUPBiCGStab:  Solving for Uy, Initial residual = 0.00495816, Final residual = 6.67222e-05, No Iterations 1
DILUPBiCGStab:  Solving for Uz, Initial residual = 0.00593837, Final residual = 8.14869e-05, No Iterations 1
DILUPBiCGStab:  Solving for T, Initial residual = 0.335366, Final residual = 0.0109541, No Iterations 1
DICPCG:  Solving for p_rgh, Initial residual = 2.48964e-12, Final residual = 2.48964e-12, No Iterations 0
time step continuity errors : sum local = 8.24793e-12, global = 2.89896e-27, cumulative = -1.88791e-27
DILUPBiCGStab:  Solving for epsilon, Initial residual = 0.0220487, Final residual = 0.000347873, No Iterations 1
bounding epsilon, min: 9.29912e-23 max: 4.04435e-08 average: 2.44751e-09
DILUPBiCGStab:  Solving for k, Initial residual = 0.0167322, Final residual = 0.000270988, No Iterations 1
bounding k, min: 3.05923e-16 max: 1.70114e-05 average: 4.59204e-06
ExecutionTime = 20.18 s  ClockTime = 22 s

Time = 455

DILUPBiCGStab:  Solving for Ux, Initial residual = 0.00555076, Final residual = 7.49197e-05, No Iterations 1
DILUPBiCGStab:  Solving for Uy, Initial residual = 0.0049691, Final residual = 6.79228e-05, No Iterations 1
DILUPBiCGStab:  Solving for Uz, Initial residual = 0.00609922, Final residual = 8.27177e-05, No Iterations 1
DILUPBiCGStab:  Solving for T, Initial residual = 0.333569, Final residual = 0.0108032, No Iterations 1
DICPCG:  Solving for p_rgh, Initial residual = 2.51615e-12, Final residual = 2.51615e-12, No Iterations 0
time step continuity errors : sum local = 8.34346e-12, global = 2.47902e-27, cumulative = 5.91109e-28
DILUPBiCGStab:  Solving for epsilon, Initial residual = 0.0220384, Final residual = 0.000347716, No Iterations 1
bounding epsilon, min: 9.29912e-23 max: 3.94025e-08 average: 2.38489e-09
DILUPBiCGStab:  Solving for k, Initial residual = 0.0167268, Final residual = 0.000270904, No Iterations 1
bounding k, min: 3.05923e-16 max: 1.67229e-05 average: 4.51311e-06
ExecutionTime = 20.52 s  ClockTime = 22 s

Time = 456

DILUPBiCGStab:  Solving for Ux, Initial residual = 0.0056107, Final residual = 7.65681e-05, No Iterations 1
DILUPBiCGStab:  Solving for Uy, Initial residual = 0.00503188, Final residual = 6.91042e-05, No Iterations 1
DILUPBiCGStab:  Solving for Uz, Initial residual = 0.00603128, Final residual = 8.35813e-05, No Iterations 1
DILUPBiCGStab:  Solving for T, Initial residual = 0.341699, Final residual = 0.0109242, No Iterations 1
DICPCG:  Solving for p_rgh, Initial residual = 2.52897e-12, Final residual = 2.52897e-12, No Iterations 0
time step continuity errors : sum local = 8.35726e-12, global = 2.12284e-27, cumulative = 2.71395e-27
DILUPBiCGStab:  Solving for epsilon, Initial residual = 0.0220281, Final residual = 0.000347557, No Iterations 1
bounding epsilon, min: 9.29912e-23 max: 3.83883e-08 average: 2.32388e-09
DILUPBiCGStab:  Solving for k, Initial residual = 0.0167214, Final residual = 0.000270819, No Iterations 1
bounding k, min: 3.05923e-16 max: 1.64393e-05 average: 4.43553e-06
ExecutionTime = 20.9 s  ClockTime = 23 s

Time = 457

DILUPBiCGStab:  Solving for Ux, Initial residual = 0.00563168, Final residual = 7.72941e-05, No Iterations 1
DILUPBiCGStab:  Solving for Uy, Initial residual = 0.00495782, Final residual = 6.73467e-05, No Iterations 1
DILUPBiCGStab:  Solving for Uz, Initial residual = 0.00607133, Final residual = 8.319e-05, No Iterations 1
DILUPBiCGStab:  Solving for T, Initial residual = 0.337443, Final residual = 0.0109623, No Iterations 1
DICPCG:  Solving for p_rgh, Initial residual = 2.53976e-12, Final residual = 2.53976e-12, No Iterations 0
time step continuity errors : sum local = 8.42018e-12, global = -1.93927e-27, cumulative = 7.7468e-28
DILUPBiCGStab:  Solving for epsilon, Initial residual = 0.0220177, Final residual = 0.000347398, No Iterations 1
bounding epsilon, min: 9.29912e-23 max: 3.74002e-08 average: 2.26443e-09
DILUPBiCGStab:  Solving for k, Initial residual = 0.016716, Final residual = 0.000270734, No Iterations 1
bounding k, min: 3.05923e-16 max: 1.61605e-05 average: 4.35928e-06
ExecutionTime = 21.23 s  ClockTime = 23 s

Time = 458

DILUPBiCGStab:  Solving for Ux, Initial residual = 0.00559879, Final residual = 7.65043e-05, No Iterations 1
DILUPBiCGStab:  Solving for Uy, Initial residual = 0.00499713, Final residual = 6.74355e-05, No Iterations 1
DILUPBiCGStab:  Solving for Uz, Initial residual = 0.00605593, Final residual = 8.22393e-05, No Iterations 1
DILUPBiCGStab:  Solving for T, Initial residual = 0.334337, Final residual = 0.0107502, No Iterations 1
DICPCG:  Solving for p_rgh, Initial residual = 2.5467e-12, Final residual = 2.5467e-12, No Iterations 0
time step continuity errors : sum local = 8.41946e-12, global = -3.39728e-27, cumulative = -2.6226e-27
DILUPBiCGStab:  Solving for epsilon, Initial residual = 0.0220072, Final residual = 0.000347238, No Iterations 1
bounding epsilon, min: 9.29912e-23 max: 3.64375e-08 average: 2.20649e-09
DILUPBiCGStab:  Solving for k, Initial residual = 0.0167105, Final residual = 0.000270648, No Iterations 1
bounding k, min: 3.05923e-16 max: 1.58864e-05 average: 4.28434e-06
ExecutionTime = 21.58 s  ClockTime = 23 s

Time = 459

DILUPBiCGStab:  Solving for Ux, Initial residual = 0.00563898, Final residual = 7.78246e-05, No Iterations 1
DILUPBiCGStab:  Solving for Uy, Initial residual = 0.00503808, Final residual = 6.9235e-05, No Iterations 1
DILUPBiCGStab:  Solving for Uz, Initial residual = 0.00598617, Final residual = 8.07617e-05, No Iterations 1
DILUPBiCGStab:  Solving for T, Initial residual = 0.33552, Final residual = 0.0104521, No Iterations 1
DICPCG:  Solving for p_rgh, Initial residual = 2.5555e-12, Final residual = 2.5555e-12, No Iterations 0
time step continuity errors : sum local = 8.46407e-12, global = 1.03381e-27, cumulative = -1.5888e-27
DILUPBiCGStab:  Solving for epsilon, Initial residual = 0.0219967, Final residual = 0.000347077, No Iterations 1
bounding epsilon, min: 9.29912e-23 max: 3.54996e-08 average: 2.15004e-09
DILUPBiCGStab:  Solving for k, Initial residual = 0.016705, Final residual = 0.000270562, No Iterations 1
bounding k, min: 3.05922e-16 max: 1.5617e-05 average: 4.21069e-06
ExecutionTime = 21.94 s  ClockTime = 24 s

Time = 460

DILUPBiCGStab:  Solving for Ux, Initial residual = 0.00569642, Final residual = 7.91864e-05, No Iterations 1
DILUPBiCGStab:  Solving for Uy, Initial residual = 0.00507586, Final residual = 6.98986e-05, No Iterations 1
DILUPBiCGStab:  Solving for Uz, Initial residual = 0.00614349, Final residual = 8.26508e-05, No Iterations 1
DILUPBiCGStab:  Solving for T, Initial residual = 0.332661, Final residual = 0.0108138, No Iterations 1
DICPCG:  Solving for p_rgh, Initial residual = 2.5758e-12, Final residual = 2.5758e-12, No Iterations 0
time step continuity errors : sum local = 8.52798e-12, global = 1.93602e-27, cumulative = 3.47227e-28
DILUPBiCGStab:  Solving for epsilon, Initial residual = 0.0219862, Final residual = 0.000346916, No Iterations 1
bounding epsilon, min: 9.29912e-23 max: 3.45858e-08 average: 2.09504e-09
DILUPBiCGStab:  Solving for k, Initial residual = 0.0166995, Final residual = 0.000270475, No Iterations 1
bounding k, min: 3.05922e-16 max: 1.53521e-05 average: 4.1383e-06
ExecutionTime = 22.29 s  ClockTime = 24 s

Time = 461

DILUPBiCGStab:  Solving for Ux, Initial residual = 0.0057176, Final residual = 7.80047e-05, No Iterations 1
DILUPBiCGStab:  Solving for Uy, Initial residual = 0.00504329, Final residual = 6.90594e-05, No Iterations 1
DILUPBiCGStab:  Solving for Uz, Initial residual = 0.00606596, Final residual = 8.31829e-05, No Iterations 1
DILUPBiCGStab:  Solving for T, Initial residual = 0.336378, Final residual = 0.0107374, No Iterations 1
DICPCG:  Solving for p_rgh, Initial residual = 2.57658e-12, Final residual = 2.57658e-12, No Iterations 0
time step continuity errors : sum local = 8.5314e-12, global = -8.77242e-28, cumulative = -5.30015e-28
DILUPBiCGStab:  Solving for epsilon, Initial residual = 0.0219756, Final residual = 0.000346753, No Iterations 1
bounding epsilon, min: 9.29912e-23 max: 3.36955e-08 average: 2.04144e-09
DILUPBiCGStab:  Solving for k, Initial residual = 0.0166939, Final residual = 0.000270388, No Iterations 1
bounding k, min: 3.05922e-16 max: 1.50916e-05 average: 4.06715e-06
ExecutionTime = 22.65 s  ClockTime = 24 s

Time = 462

DILUPBiCGStab:  Solving for Ux, Initial residual = 0.00583229, Final residual = 7.98582e-05, No Iterations 1
DILUPBiCGStab:  Solving for Uy, Initial residual = 0.0051721, Final residual = 6.93306e-05, No Iterations 1
DILUPBiCGStab:  Solving for Uz, Initial residual = 0.00632807, Final residual = 8.53558e-05, No Iterations 1
DILUPBiCGStab:  Solving for T, Initial residual = 0.332059, Final residual = 0.0106101, No Iterations 1
DICPCG:  Solving for p_rgh, Initial residual = 2.59476e-12, Final residual = 2.59476e-12, No Iterations 0
time step continuity errors : sum local = 8.59217e-12, global = -6.55698e-28, cumulative = -1.18571e-27
DILUPBiCGStab:  Solving for epsilon, Initial residual = 0.0219649, Final residual = 0.00034659, No Iterations 1
bounding epsilon, min: 9.29912e-23 max: 3.28282e-08 average: 1.98921e-09
DILUPBiCGStab:  Solving for k, Initial residual = 0.0166884, Final residual = 0.000270301, No Iterations 1
bounding k, min: 3.05922e-16 max: 1.48356e-05 average: 3.99722e-06
ExecutionTime = 23 s  ClockTime = 25 s

Time = 463

DILUPBiCGStab:  Solving for Ux, Initial residual = 0.00586691, Final residual = 8.04769e-05, No Iterations 1
DILUPBiCGStab:  Solving for Uy, Initial residual = 0.00529686, Final residual = 7.21517e-05, No Iterations 1
DILUPBiCGStab:  Solving for Uz, Initial residual = 0.00615676, Final residual = 8.43406e-05, No Iterations 1
DILUPBiCGStab:  Solving for T, Initial residual = 0.335775, Final residual = 0.0109906, No Iterations 1
DICPCG:  Solving for p_rgh, Initial residual = 2.60488e-12, Final residual = 2.60488e-12, No Iterations 0
time step continuity errors : sum local = 8.62971e-12, global = 2.822e-27, cumulative = 1.63629e-27
DILUPBiCGStab:  Solving for epsilon, Initial residual = 0.0219542, Final residual = 0.000346425, No Iterations 1
bounding epsilon, min: 9.29912e-23 max: 3.19831e-08 average: 1.93832e-09
DILUPBiCGStab:  Solving for k, Initial residual = 0.0166827, Final residual = 0.000270212, No Iterations 1
bounding k, min: 3.05922e-16 max: 1.45839e-05 average: 3.9285e-06
ExecutionTime = 23.36 s  ClockTime = 25 s

Time = 464

DILUPBiCGStab:  Solving for Ux, Initial residual = 0.00577205, Final residual = 7.99957e-05, No Iterations 1
DILUPBiCGStab:  Solving for Uy, Initial residual = 0.00520676, Final residual = 7.19779e-05, No Iterations 1
DILUPBiCGStab:  Solving for Uz, Initial residual = 0.00612778, Final residual = 8.29926e-05, No Iterations 1
DILUPBiCGStab:  Solving for T, Initial residual = 0.335323, Final residual = 0.0110049, No Iterations 1
DICPCG:  Solving for p_rgh, Initial residual = 2.63181e-12, Final residual = 2.63181e-12, No Iterations 0
time step continuity errors : sum local = 8.72451e-12, global = 1.41821e-27, cumulative = 3.05449e-27
DILUPBiCGStab:  Solving for epsilon, Initial residual = 0.0219435, Final residual = 0.00034626, No Iterations 1
bounding epsilon, min: 9.29912e-23 max: 3.11598e-08 average: 1.88873e-09
DILUPBiCGStab:  Solving for k, Initial residual = 0.0166771, Final residual = 0.000270124, No Iterations 1
bounding k, min: 3.05921e-16 max: 1.43364e-05 average: 3.86095e-06
ExecutionTime = 23.72 s  ClockTime = 26 s

Time = 465

DILUPBiCGStab:  Solving for Ux, Initial residual = 0.00595218, Final residual = 8.07378e-05, No Iterations 1
DILUPBiCGStab:  Solving for Uy, Initial residual = 0.00521563, Final residual = 7.21322e-05, No Iterations 1
DILUPBiCGStab:  Solving for Uz, Initial residual = 0.00634206, Final residual = 8.76614e-05, No Iterations 1
DILUPBiCGStab:  Solving for T, Initial residual = 0.349936, Final residual = 0.0110976, No Iterations 1
DICPCG:  Solving for p_rgh, Initial residual = 2.66391e-12, Final residual = 2.66391e-12, No Iterations 0
time step continuity errors : sum local = 8.82086e-12, global = -1.23707e-27, cumulative = 1.81742e-27
DILUPBiCGStab:  Solving for epsilon, Initial residual = 0.0219327, Final residual = 0.000346094, No Iterations 1
bounding epsilon, min: 9.29912e-23 max: 3.03576e-08 average: 1.84041e-09
DILUPBiCGStab:  Solving for k, Initial residual = 0.0166714, Final residual = 0.000270035, No Iterations 1
bounding k, min: 3.05921e-16 max: 1.40932e-05 average: 3.79456e-06
ExecutionTime = 24.07 s  ClockTime = 26 s

Time = 466

DILUPBiCGStab:  Solving for Ux, Initial residual = 0.00628987, Final residual = 8.5094e-05, No Iterations 1
DILUPBiCGStab:  Solving for Uy, Initial residual = 0.00551895, Final residual = 7.44369e-05, No Iterations 1
DILUPBiCGStab:  Solving for Uz, Initial residual = 0.00666832, Final residual = 8.8983e-05, No Iterations 1
DILUPBiCGStab:  Solving for T, Initial residual = 0.347203, Final residual = 0.0111489, No Iterations 1
DICPCG:  Solving for p_rgh, Initial residual = 2.69202e-12, Final residual = 2.69202e-12, No Iterations 0
time step continuity errors : sum local = 8.91145e-12, global = 6.43717e-28, cumulative = 2.46114e-27
DILUPBiCGStab:  Solving for epsilon, Initial residual = 0.0219218, Final residual = 0.000345927, No Iterations 1
bounding epsilon, min: 9.29912e-23 max: 2.95761e-08 average: 1.79332e-09
DILUPBiCGStab:  Solving for k, Initial residual = 0.0166658, Final residual = 0.000269945, No Iterations 1
bounding k, min: 3.05921e-16 max: 1.3854e-05 average: 3.72932e-06
ExecutionTime = 24.43 s  ClockTime = 26 s

Time = 467

DILUPBiCGStab:  Solving for Ux, Initial residual = 0.00622334, Final residual = 8.30158e-05, No Iterations 1
DILUPBiCGStab:  Solving for Uy, Initial residual = 0.00561984, Final residual = 7.49602e-05, No Iterations 1
DILUPBiCGStab:  Solving for Uz, Initial residual = 0.00664878, Final residual = 8.76016e-05, No Iterations 1
DILUPBiCGStab:  Solving for T, Initial residual = 0.341559, Final residual = 0.0109829, No Iterations 1
DICPCG:  Solving for p_rgh, Initial residual = 2.70198e-12, Final residual = 2.70198e-12, No Iterations 0
time step continuity errors : sum local = 8.94045e-12, global = -4.00871e-27, cumulative = -1.54757e-27
DILUPBiCGStab:  Solving for epsilon, Initial residual = 0.0219109, Final residual = 0.000345759, No Iterations 1
bounding epsilon, min: 9.29912e-23 max: 2.88147e-08 average: 1.74744e-09
DILUPBiCGStab:  Solving for k, Initial residual = 0.01666, Final residual = 0.000269855, No Iterations 1
bounding k, min: 3.05921e-16 max: 1.36189e-05 average: 3.66519e-06
ExecutionTime = 24.8 s  ClockTime = 27 s

Time = 468

DILUPBiCGStab:  Solving for Ux, Initial residual = 0.00629901, Final residual = 8.37265e-05, No Iterations 1
DILUPBiCGStab:  Solving for Uy, Initial residual = 0.00563044, Final residual = 7.52906e-05, No Iterations 1
DILUPBiCGStab:  Solving for Uz, Initial residual = 0.00677543, Final residual = 8.98272e-05, No Iterations 1
DILUPBiCGStab:  Solving for T, Initial residual = 0.340243, Final residual = 0.0109769, No Iterations 1
DICPCG:  Solving for p_rgh, Initial residual = 2.70261e-12, Final residual = 2.70261e-12, No Iterations 0
time step continuity errors : sum local = 8.93357e-12, global = -8.02311e-28, cumulative = -2.34989e-27
DILUPBiCGStab:  Solving for epsilon, Initial residual = 0.0218999, Final residual = 0.00034559, No Iterations 1
bounding epsilon, min: 9.29912e-23 max: 2.80729e-08 average: 1.70273e-09
DILUPBiCGStab:  Solving for k, Initial residual = 0.0166543, Final residual = 0.000269764, No Iterations 1
bounding k, min: 3.0592e-16 max: 1.33878e-05 average: 3.60216e-06
ExecutionTime = 25.15 s  ClockTime = 27 s

Time = 469

DILUPBiCGStab:  Solving for Ux, Initial residual = 0.00623446, Final residual = 8.34299e-05, No Iterations 1
DILUPBiCGStab:  Solving for Uy, Initial residual = 0.00567567, Final residual = 7.60756e-05, No Iterations 1
DILUPBiCGStab:  Solving for Uz, Initial residual = 0.00676023, Final residual = 9.18731e-05, No Iterations 1
DILUPBiCGStab:  Solving for T, Initial residual = 0.344039, Final residual = 0.0111121, No Iterations 1
DICPCG:  Solving for p_rgh, Initial residual = 2.72403e-12, Final residual = 2.72403e-12, No Iterations 0
time step continuity errors : sum local = 9.02084e-12, global = 2.31433e-27, cumulative = -3.55507e-29
DILUPBiCGStab:  Solving for epsilon, Initial residual = 0.0218889, Final residual = 0.00034542, No Iterations 1
bounding epsilon, min: 9.29912e-23 max: 2.73501e-08 average: 1.65917e-09
DILUPBiCGStab:  Solving for k, Initial residual = 0.0166485, Final residual = 0.000269673, No Iterations 1
bounding k, min: 3.0592e-16 max: 1.31605e-05 average: 3.54022e-06
ExecutionTime = 25.51 s  ClockTime = 27 s

Time = 470

DILUPBiCGStab:  Solving for Ux, Initial residual = 0.00634586, Final residual = 8.58857e-05, No Iterations 1
DILUPBiCGStab:  Solving for Uy, Initial residual = 0.00569073, Final residual = 7.60182e-05, No Iterations 1
DILUPBiCGStab:  Solving for Uz, Initial residual = 0.00695363, Final residual = 9.38036e-05, No Iterations 1
DILUPBiCGStab:  Solving for T, Initial residual = 0.33657, Final residual = 0.0110133, No Iterations 1
DICPCG:  Solving for p_rgh, Initial residual = 2.74848e-12, Final residual = 2.74848e-12, No Iterations 0
time step continuity errors : sum local = 9.11712e-12, global = -1.10061e-28, cumulative = -1.45612e-28
DILUPBiCGStab:  Solving for epsilon, Initial residual = 0.0218778, Final residual = 0.00034525, No Iterations 1
bounding epsilon, min: 9.29912e-23 max: 2.66459e-08 average: 1.61672e-09
DILUPBiCGStab:  Solving for k, Initial residual = 0.0166427, Final residual = 0.000269581, No Iterations 1
bounding k, min: 3.0592e-16 max: 1.29372e-05 average: 3.47933e-06
ExecutionTime = 25.86 s  ClockTime = 28 s

Time = 471

DILUPBiCGStab:  Solving for Ux, Initial residual = 0.00646383, Final residual = 8.72057e-05, No Iterations 1
DILUPBiCGStab:  Solving for Uy, Initial residual = 0.00573369, Final residual = 7.81835e-05, No Iterations 1
DILUPBiCGStab:  Solving for Uz, Initial residual = 0.00694844, Final residual = 9.3745e-05, No Iterations 1
DILUPBiCGStab:  Solving for T, Initial residual = 0.338731, Final residual = 0.0109076, No Iterations 1
DICPCG:  Solving for p_rgh, Initial residual = 2.75417e-12, Final residual = 2.75417e-12, No Iterations 0
time step continuity errors : sum local = 9.09921e-12, global = 3.92931e-28, cumulative = 2.47319e-28
DILUPBiCGStab:  Solving for epsilon, Initial residual = 0.0218667, Final residual = 0.000345078, No Iterations 1
bounding epsilon, min: 9.29912e-23 max: 2.59599e-08 average: 1.57535e-09
DILUPBiCGStab:  Solving for k, Initial residual = 0.0166368, Final residual = 0.000269488, No Iterations 1
bounding k, min: 3.0592e-16 max: 1.27175e-05 average: 3.41949e-06
ExecutionTime = 26.22 s  ClockTime = 28 s

Time = 472

DILUPBiCGStab:  Solving for Ux, Initial residual = 0.00645577, Final residual = 8.64283e-05, No Iterations 1
DILUPBiCGStab:  Solving for Uy, Initial residual = 0.00575016, Final residual = 7.82094e-05, No Iterations 1
DILUPBiCGStab:  Solving for Uz, Initial residual = 0.00695942, Final residual = 9.30298e-05, No Iterations 1
DILUPBiCGStab:  Solving for T, Initial residual = 0.326575, Final residual = 0.0106777, No Iterations 1
DICPCG:  Solving for p_rgh, Initial residual = 2.7441e-12, Final residual = 2.7441e-12, No Iterations 0
time step continuity errors : sum local = 9.08066e-12, global = -5.65943e-28, cumulative = -3.18624e-28
DILUPBiCGStab:  Solving for epsilon, Initial residual = 0.0218555, Final residual = 0.000344905, No Iterations 1
bounding epsilon, min: 9.29912e-23 max: 2.52915e-08 average: 1.53505e-09
DILUPBiCGStab:  Solving for k, Initial residual = 0.016631, Final residual = 0.000269395, No Iterations 1
bounding k, min: 3.0592e-16 max: 1.25016e-05 average: 3.36068e-06
ExecutionTime = 26.56 s  ClockTime = 28 s

Time = 473

DILUPBiCGStab:  Solving for Ux, Initial residual = 0.00643678, Final residual = 8.80196e-05, No Iterations 1
DILUPBiCGStab:  Solving for Uy, Initial residual = 0.00569522, Final residual = 7.79889e-05, No Iterations 1
DILUPBiCGStab:  Solving for Uz, Initial residual = 0.00686185, Final residual = 9.32398e-05, No Iterations 1
DILUPBiCGStab:  Solving for T, Initial residual = 0.33069, Final residual = 0.0105724, No Iterations 1
DICPCG:  Solving for p_rgh, Initial residual = 2.7527e-12, Final residual = 2.7527e-12, No Iterations 0
time step continuity errors : sum local = 9.11877e-12, global = 2.75417e-27, cumulative = 2.43555e-27
DILUPBiCGStab:  Solving for epsilon, Initial residual = 0.0218442, Final residual = 0.000344732, No Iterations 1
bounding epsilon, min: 9.29912e-23 max: 2.46403e-08 average: 1.49577e-09
DILUPBiCGStab:  Solving for k, Initial residual = 0.0166251, Final residual = 0.000269302, No Iterations 1
bounding k, min: 3.0592e-16 max: 1.22894e-05 average: 3.30288e-06
ExecutionTime = 26.9 s  ClockTime = 29 s

Time = 474

DILUPBiCGStab:  Solving for Ux, Initial residual = 0.00658319, Final residual = 9.03913e-05, No Iterations 1
DILUPBiCGStab:  Solving for Uy, Initial residual = 0.00588183, Final residual = 7.92368e-05, No Iterations 1
DILUPBiCGStab:  Solving for Uz, Initial residual = 0.00708023, Final residual = 9.57525e-05, No Iterations 1
DILUPBiCGStab:  Solving for T, Initial residual = 0.329427, Final residual = 0.0107841, No Iterations 1
DICPCG:  Solving for p_rgh, Initial residual = 2.7723e-12, Final residual = 2.7723e-12, No Iterations 0
time step continuity errors : sum local = 9.18726e-12, global = -1.42592e-27, cumulative = 1.00963e-27
DILUPBiCGStab:  Solving for epsilon, Initial residual = 0.0218329, Final residual = 0.000344557, No Iterations 1
bounding epsilon, min: 9.29912e-23 max: 2.40058e-08 average: 1.4575e-09
DILUPBiCGStab:  Solving for k, Initial residual = 0.0166191, Final residual = 0.000269208, No Iterations 1
bounding k, min: 3.0592e-16 max: 1.20807e-05 average: 3.24607e-06
[...]
DILUPBiCGStab:  Solving for Uy, Initial residual = 0.0328917, Final residual = 0.000400703, No Iterations 1
DILUPBiCGStab:  Solving for Uz, Initial residual = 0.0340692, Final residual = 0.000399204, No Iterations 1
DILUPBiCGStab:  Solving for T, Initial residual = 0.284685, Final residual = 0.00919199, No Iterations 1
DICPCG:  Solving for p_rgh, Initial residual = 7.65955e-11, Final residual = 7.65955e-11, No Iterations 0
time step continuity errors : sum local = 2.53281e-10, global = -5.63547e-27, cumulative = -1.29641e-26
DILUPBiCGStab:  Solving for epsilon, Initial residual = 0.431892, Final residual = 3.56312e-06, No Iterations 1
bounding epsilon, min: 2.31048e-23 max: 1.27778e-14 average: 1.25941e-15
DILUPBiCGStab:  Solving for k, Initial residual = 1.46333e-05, Final residual = 2.32674e-06, No Iterations 1
bounding k, min: -1.63205e-14 max: 7.48857e-10 average: 1.25327e-10
ExecutionTime = 206.06 s  ClockTime = 216 s

Time = 983

DILUPBiCGStab:  Solving for Ux, Initial residual = 0.0298475, Final residual = 0.000358033, No Iterations 1
DILUPBiCGStab:  Solving for Uy, Initial residual = 0.0339485, Final residual = 0.000412496, No Iterations 1
DILUPBiCGStab:  Solving for Uz, Initial residual = 0.0347988, Final residual = 0.000407609, No Iterations 1
DILUPBiCGStab:  Solving for T, Initial residual = 0.288117, Final residual = 0.0091637, No Iterations 1
DICPCG:  Solving for p_rgh, Initial residual = 7.75387e-11, Final residual = 7.75387e-11, No Iterations 0
time step continuity errors : sum local = 2.55549e-10, global = 4.79884e-27, cumulative = -8.16527e-27
DILUPBiCGStab:  Solving for epsilon, Initial residual = 0.453594, Final residual = 3.51065e-06, No Iterations 1
bounding epsilon, min: 2.31048e-23 max: 1.22971e-14 average: 1.21647e-15
DILUPBiCGStab:  Solving for k, Initial residual = 1.43692e-05, Final residual = 2.28627e-06, No Iterations 1
bounding k, min: -8.12467e-15 max: 7.25886e-10 average: 1.20442e-10
ExecutionTime = 206.39 s  ClockTime = 216 s

Time = 984

DILUPBiCGStab:  Solving for Ux, Initial residual = 0.0298679, Final residual = 0.000354877, No Iterations 1
DILUPBiCGStab:  Solving for Uy, Initial residual = 0.0338838, Final residual = 0.000416275, No Iterations 1
DILUPBiCGStab:  Solving for Uz, Initial residual = 0.034239, Final residual = 0.000401894, No Iterations 1
DILUPBiCGStab:  Solving for T, Initial residual = 0.284443, Final residual = 0.00914416, No Iterations 1
DICPCG:  Solving for p_rgh, Initial residual = 7.75599e-11, Final residual = 7.75599e-11, No Iterations 0
time step continuity errors : sum local = 2.56306e-10, global = -4.56816e-27, cumulative = -1.27334e-26
DILUPBiCGStab:  Solving for epsilon, Initial residual = 0.476334, Final residual = 3.43612e-06, No Iterations 1
bounding epsilon, min: 2.31048e-23 max: 1.18366e-14 average: 1.17537e-15
DILUPBiCGStab:  Solving for k, Initial residual = 1.40426e-05, Final residual = 2.23361e-06, No Iterations 1
bounding k, min: -2.15041e-15 max: 7.03652e-10 average: 1.15706e-10
ExecutionTime = 206.73 s  ClockTime = 216 s

Time = 985

DILUPBiCGStab:  Solving for Ux, Initial residual = 0.0295706, Final residual = 0.000346713, No Iterations 1
DILUPBiCGStab:  Solving for Uy, Initial residual = 0.0336838, Final residual = 0.00041179, No Iterations 1
DILUPBiCGStab:  Solving for Uz, Initial residual = 0.0341174, Final residual = 0.00040205, No Iterations 1
DILUPBiCGStab:  Solving for T, Initial residual = 0.285954, Final residual = 0.00926625, No Iterations 1
DICPCG:  Solving for p_rgh, Initial residual = 7.79018e-11, Final residual = 7.79018e-11, No Iterations 0
time step continuity errors : sum local = 2.57146e-10, global = -5.52662e-27, cumulative = -1.826e-26
DILUPBiCGStab:  Solving for epsilon, Initial residual = 0.500126, Final residual = 3.38361e-06, No Iterations 1
bounding epsilon, min: 2.31048e-23 max: 1.13954e-14 average: 1.1361e-15
DILUPBiCGStab:  Solving for k, Initial residual = 1.38226e-05, Final residual = 2.19553e-06, No Iterations 1
bounding k, min: -4.06251e-15 max: 6.82138e-10 average: 1.11113e-10
ExecutionTime = 207.07 s  ClockTime = 217 s

Time = 986

DILUPBiCGStab:  Solving for Ux, Initial residual = 0.0290761, Final residual = 0.000345526, No Iterations 1
DILUPBiCGStab:  Solving for Uy, Initial residual = 0.0331109, Final residual = 0.000410916, No Iterations 1
DILUPBiCGStab:  Solving for Uz, Initial residual = 0.0340403, Final residual = 0.000410248, No Iterations 1
DILUPBiCGStab:  Solving for T, Initial residual = 0.283889, Final residual = 0.00895452, No Iterations 1
DICPCG:  Solving for p_rgh, Initial residual = 7.8229e-11, Final residual = 7.8229e-11, No Iterations 0
time step continuity errors : sum local = 2.58502e-10, global = 2.65284e-27, cumulative = -1.56072e-26
DILUPBiCGStab:  Solving for epsilon, Initial residual = 0.524971, Final residual = 3.33619e-06, No Iterations 1
bounding epsilon, min: 2.31048e-23 max: 1.09728e-14 average: 1.0986e-15
DILUPBiCGStab:  Solving for k, Initial residual = 1.36082e-05, Final residual = 2.15621e-06, No Iterations 1
bounding k, min: -1.86649e-16 max: 6.6133e-10 average: 1.06659e-10
ExecutionTime = 207.41 s  ClockTime = 217 s

Time = 987

DILUPBiCGStab:  Solving for Ux, Initial residual = 0.0299667, Final residual = 0.000355088, No Iterations 1
DILUPBiCGStab:  Solving for Uy, Initial residual = 0.0335622, Final residual = 0.000421425, No Iterations 1
DILUPBiCGStab:  Solving for Uz, Initial residual = 0.0343295, Final residual = 0.000407491, No Iterations 1
DILUPBiCGStab:  Solving for T, Initial residual = 0.282859, Final residual = 0.00902263, No Iterations 1
DICPCG:  Solving for p_rgh, Initial residual = 7.88029e-11, Final residual = 7.88029e-11, No Iterations 0
time step continuity errors : sum local = 2.60049e-10, global = 2.27271e-27, cumulative = -1.33345e-26
DILUPBiCGStab:  Solving for epsilon, Initial residual = 0.550878, Final residual = 3.29995e-06, No Iterations 1
bounding epsilon, min: 2.31048e-23 max: 1.05681e-14 average: 1.06282e-15
DILUPBiCGStab:  Solving for k, Initial residual = 1.34397e-05, Final residual = 2.12208e-06, No Iterations 1
bounding k, min: -9.54273e-15 max: 6.41211e-10 average: 1.0234e-10
ExecutionTime = 207.75 s  ClockTime = 217 s

Time = 988

DILUPBiCGStab:  Solving for Ux, Initial residual = 0.0288323, Final residual = 0.000342544, No Iterations 1
DILUPBiCGStab:  Solving for Uy, Initial residual = 0.0327811, Final residual = 0.000408013, No Iterations 1
DILUPBiCGStab:  Solving for Uz, Initial residual = 0.0329273, Final residual = 0.00038501, No Iterations 1
DILUPBiCGStab:  Solving for T, Initial residual = 0.282353, Final residual = 0.00908039, No Iterations 1
DICPCG:  Solving for p_rgh, Initial residual = 7.95149e-11, Final residual = 7.95149e-11, No Iterations 0
time step continuity errors : sum local = 2.62518e-10, global = -2.544e-27, cumulative = -1.58785e-26
DILUPBiCGStab:  Solving for epsilon, Initial residual = 0.577873, Final residual = 3.26395e-06, No Iterations 1
bounding epsilon, min: 2.31048e-23 max: 1.01805e-14 average: 1.02865e-15
DILUPBiCGStab:  Solving for k, Initial residual = 1.32838e-05, Final residual = 2.08789e-06, No Iterations 1
bounding k, min: -6.22107e-15 max: 6.21764e-10 average: 9.81523e-11
ExecutionTime = 208.09 s  ClockTime = 218 s

Time = 989

DILUPBiCGStab:  Solving for Ux, Initial residual = 0.0281382, Final residual = 0.000331484, No Iterations 1
DILUPBiCGStab:  Solving for Uy, Initial residual = 0.0329679, Final residual = 0.000411158, No Iterations 1
DILUPBiCGStab:  Solving for Uz, Initial residual = 0.0327939, Final residual = 0.000384431, No Iterations 1
DILUPBiCGStab:  Solving for T, Initial residual = 0.27871, Final residual = 0.0090618, No Iterations 1
DICPCG:  Solving for p_rgh, Initial residual = 8.02489e-11, Final residual = 8.02489e-11, No Iterations 0
time step continuity errors : sum local = 2.65526e-10, global = 1.44777e-26, cumulative = -1.40076e-27
DILUPBiCGStab:  Solving for epsilon, Initial residual = 0.605947, Final residual = 3.24772e-06, No Iterations 1
bounding epsilon, min: 2.31048e-23 max: 9.8093e-15 average: 9.96043e-16
DILUPBiCGStab:  Solving for k, Initial residual = 1.32071e-05, Final residual = 2.06355e-06, No Iterations 1
bounding k, min: 1.10485e-17 max: 6.02971e-10 average: 9.40909e-11
ExecutionTime = 208.43 s  ClockTime = 218 s

Time = 990

DILUPBiCGStab:  Solving for Ux, Initial residual = 0.0285667, Final residual = 0.000337844, No Iterations 1
DILUPBiCGStab:  Solving for Uy, Initial residual = 0.0325875, Final residual = 0.000401412, No Iterations 1
DILUPBiCGStab:  Solving for Uz, Initial residual = 0.0333753, Final residual = 0.000400505, No Iterations 1
DILUPBiCGStab:  Solving for T, Initial residual = 0.270842, Final residual = 0.00867964, No Iterations 1
DICPCG:  Solving for p_rgh, Initial residual = 8.11728e-11, Final residual = 8.11728e-11, No Iterations 0
time step continuity errors : sum local = 2.68457e-10, global = -1.5753e-26, cumulative = -1.71537e-26
DILUPBiCGStab:  Solving for epsilon, Initial residual = 0.635092, Final residual = 3.23164e-06, No Iterations 1
bounding epsilon, min: 2.31048e-23 max: 9.45391e-15 average: 9.64917e-16
DILUPBiCGStab:  Solving for k, Initial residual = 1.31319e-05, Final residual = 2.03696e-06, No Iterations 1
bounding k, min: -1.21082e-18 max: 5.84814e-10 average: 9.01527e-11
ExecutionTime = 208.77 s  ClockTime = 218 s

Time = 991

DILUPBiCGStab:  Solving for Ux, Initial residual = 0.0280891, Final residual = 0.000345735, No Iterations 1
DILUPBiCGStab:  Solving for Uy, Initial residual = 0.0323118, Final residual = 0.000387634, No Iterations 1
DILUPBiCGStab:  Solving for Uz, Initial residual = 0.0327097, Final residual = 0.000398449, No Iterations 1
DILUPBiCGStab:  Solving for T, Initial residual = 0.275952, Final residual = 0.00887729, No Iterations 1
DICPCG:  Solving for p_rgh, Initial residual = 8.1957e-11, Final residual = 8.1957e-11, No Iterations 0
time step continuity errors : sum local = 2.71036e-10, global = 3.81763e-27, cumulative = -1.33361e-26
DILUPBiCGStab:  Solving for epsilon, Initial residual = 0.665245, Final residual = 3.23493e-06, No Iterations 1
bounding epsilon, min: 2.31048e-23 max: 9.1136e-15 average: 9.35233e-16
DILUPBiCGStab:  Solving for k, Initial residual = 1.3148e-05, Final residual = 2.02212e-06, No Iterations 1
bounding k, min: 3.13469e-17 max: 5.67277e-10 average: 8.63351e-11
ExecutionTime = 209.1 s  ClockTime = 219 s

Time = 992

DILUPBiCGStab:  Solving for Ux, Initial residual = 0.0281153, Final residual = 0.000336795, No Iterations 1
DILUPBiCGStab:  Solving for Uy, Initial residual = 0.0320625, Final residual = 0.00039107, No Iterations 1
DILUPBiCGStab:  Solving for Uz, Initial residual = 0.032739, Final residual = 0.0003868, No Iterations 1
DILUPBiCGStab:  Solving for T, Initial residual = 0.269882, Final residual = 0.00858664, No Iterations 1
DICPCG:  Solving for p_rgh, Initial residual = 8.27442e-11, Final residual = 8.27442e-11, No Iterations 0
time step continuity errors : sum local = 2.7359e-10, global = -1.22651e-27, cumulative = -1.45626e-26
DILUPBiCGStab:  Solving for epsilon, Initial residual = 0.696405, Final residual = 3.23288e-06, No Iterations 1
bounding epsilon, min: 2.31048e-23 max: 8.78774e-15 average: 9.06881e-16
DILUPBiCGStab:  Solving for k, Initial residual = 1.31603e-05, Final residual = 2.00465e-06, No Iterations 1
bounding k, min: -1.92205e-15 max: 5.5034e-10 average: 8.26357e-11
ExecutionTime = 209.45 s  ClockTime = 219 s

Time = 993

DILUPBiCGStab:  Solving for Ux, Initial residual = 0.0279741, Final residual = 0.000338239, No Iterations 1
DILUPBiCGStab:  Solving for Uy, Initial residual = 0.0319898, Final residual = 0.000397826, No Iterations 1
DILUPBiCGStab:  Solving for Uz, Initial residual = 0.0319703, Final residual = 0.00037535, No Iterations 1
DILUPBiCGStab:  Solving for T, Initial residual = 0.270686, Final residual = 0.00877066, No Iterations 1
DICPCG:  Solving for p_rgh, Initial residual = 8.31898e-11, Final residual = 8.31898e-11, No Iterations 0
time step continuity errors : sum local = 2.75354e-10, global = 1.10955e-27, cumulative = -1.34531e-26
DILUPBiCGStab:  Solving for epsilon, Initial residual = 0.728637, Final residual = 3.24506e-06, No Iterations 1
bounding epsilon, min: 2.31048e-23 max: 8.47568e-15 average: 8.79772e-16
DILUPBiCGStab:  Solving for k, Initial residual = 1.32204e-05, Final residual = 1.99191e-06, No Iterations 1
bounding k, min: -4.54757e-14 max: 5.33986e-10 average: 7.90527e-11
ExecutionTime = 209.79 s  ClockTime = 219 s

Time = 994

DILUPBiCGStab:  Solving for Ux, Initial residual = 0.0275965, Final residual = 0.000334345, No Iterations 1
DILUPBiCGStab:  Solving for Uy, Initial residual = 0.031089, Final residual = 0.000384698, No Iterations 1
DILUPBiCGStab:  Solving for Uz, Initial residual = 0.031884, Final residual = 0.000380659, No Iterations 1
DILUPBiCGStab:  Solving for T, Initial residual = 0.27684, Final residual = 0.00893879, No Iterations 1
DICPCG:  Solving for p_rgh, Initial residual = 8.39973e-11, Final residual = 8.39973e-11, No Iterations 0
time step continuity errors : sum local = 2.77869e-10, global = -1.45655e-26, cumulative = -2.80186e-26
DILUPBiCGStab:  Solving for epsilon, Initial residual = 0.761875, Final residual = 3.25008e-06, No Iterations 1
bounding epsilon, min: 2.31048e-23 max: 8.17682e-15 average: 8.53817e-16
DILUPBiCGStab:  Solving for k, Initial residual = 1.32731e-05, Final residual = 1.97623e-06, No Iterations 1
bounding k, min: -4.86504e-14 max: 5.18195e-10 average: 7.55832e-11
ExecutionTime = 210.12 s  ClockTime = 220 s

Time = 995

DILUPBiCGStab:  Solving for Ux, Initial residual = 0.027629, Final residual = 0.000336696, No Iterations 1
DILUPBiCGStab:  Solving for Uy, Initial residual = 0.0319687, Final residual = 0.000399676, No Iterations 1
DILUPBiCGStab:  Solving for Uz, Initial residual = 0.0318489, Final residual = 0.000378671, No Iterations 1
DILUPBiCGStab:  Solving for T, Initial residual = 0.271746, Final residual = 0.00872423, No Iterations 1
DICPCG:  Solving for p_rgh, Initial residual = 8.45328e-11, Final residual = 8.45328e-11, No Iterations 0
time step continuity errors : sum local = 2.79053e-10, global = -4.97104e-28, cumulative = -2.85157e-26
DILUPBiCGStab:  Solving for epsilon, Initial residual = 0.796004, Final residual = 3.26358e-06, No Iterations 1
bounding epsilon, min: 2.31048e-23 max: 7.89056e-15 average: 8.29017e-16
DILUPBiCGStab:  Solving for k, Initial residual = 1.33804e-05, Final residual = 1.9663e-06, No Iterations 1
bounding k, min: -3.37431e-14 max: 5.0295e-10 average: 7.22249e-11
ExecutionTime = 210.46 s  ClockTime = 220 s

Time = 996

DILUPBiCGStab:  Solving for Ux, Initial residual = 0.0279086, Final residual = 0.000336118, No Iterations 1
DILUPBiCGStab:  Solving for Uy, Initial residual = 0.0316521, Final residual = 0.000391331, No Iterations 1
DILUPBiCGStab:  Solving for Uz, Initial residual = 0.0322958, Final residual = 0.000382857, No Iterations 1
DILUPBiCGStab:  Solving for T, Initial residual = 0.270791, Final residual = 0.00861587, No Iterations 1
DICPCG:  Solving for p_rgh, Initial residual = 8.46871e-11, Final residual = 8.46871e-11, No Iterations 0
time step continuity errors : sum local = 2.80036e-10, global = 5.82716e-27, cumulative = -2.26885e-26
DILUPBiCGStab:  Solving for epsilon, Initial residual = 0.830966, Final residual = 3.27305e-06, No Iterations 1
bounding epsilon, min: 2.31048e-23 max: 7.61632e-15 average: 8.05301e-16
DILUPBiCGStab:  Solving for k, Initial residual = 1.35141e-05, Final residual = 1.95799e-06, No Iterations 1
bounding k, min: -1.83583e-14 max: 4.88232e-10 average: 6.89744e-11
ExecutionTime = 210.8 s  ClockTime = 220 s

Time = 997

DILUPBiCGStab:  Solving for Ux, Initial residual = 0.0273889, Final residual = 0.000323888, No Iterations 1
DILUPBiCGStab:  Solving for Uy, Initial residual = 0.0318088, Final residual = 0.000392872, No Iterations 1
DILUPBiCGStab:  Solving for Uz, Initial residual = 0.0316053, Final residual = 0.000375164, No Iterations 1
DILUPBiCGStab:  Solving for T, Initial residual = 0.267655, Final residual = 0.00869481, No Iterations 1
DICPCG:  Solving for p_rgh, Initial residual = 8.50471e-11, Final residual = 8.50471e-11, No Iterations 0
time step continuity errors : sum local = 2.80928e-10, global = -1.18151e-26, cumulative = -3.45036e-26
DILUPBiCGStab:  Solving for epsilon, Initial residual = 0.866641, Final residual = 3.28392e-06, No Iterations 1
bounding epsilon, min: 2.31048e-23 max: 7.35354e-15 average: 7.82641e-16
DILUPBiCGStab:  Solving for k, Initial residual = 1.36598e-05, Final residual = 1.94847e-06, No Iterations 1
bounding k, min: -7.02204e-15 max: 4.74022e-10 average: 6.58285e-11
ExecutionTime = 211.14 s  ClockTime = 221 s

Time = 998

DILUPBiCGStab:  Solving for Ux, Initial residual = 0.0270079, Final residual = 0.000325618, No Iterations 1
DILUPBiCGStab:  Solving for Uy, Initial residual = 0.0313671, Final residual = 0.000386428, No Iterations 1
DILUPBiCGStab:  Solving for Uz, Initial residual = 0.0322485, Final residual = 0.000384826, No Iterations 1
DILUPBiCGStab:  Solving for T, Initial residual = 0.269663, Final residual = 0.00878116, No Iterations 1
DICPCG:  Solving for p_rgh, Initial residual = 8.57093e-11, Final residual = 8.57093e-11, No Iterations 0
time step continuity errors : sum local = 2.83249e-10, global = 1.17364e-26, cumulative = -2.27673e-26
DILUPBiCGStab:  Solving for epsilon, Initial residual = 0.902903, Final residual = 3.29037e-06, No Iterations 1
bounding epsilon, min: 2.31048e-23 max: 7.10169e-15 average: 7.60975e-16
DILUPBiCGStab:  Solving for k, Initial residual = 1.3821e-05, Final residual = 1.93825e-06, No Iterations 1
bounding k, min: -1.9369e-15 max: 4.60302e-10 average: 6.27838e-11
ExecutionTime = 211.48 s  ClockTime = 221 s

Time = 999

DILUPBiCGStab:  Solving for Ux, Initial residual = 0.0267763, Final residual = 0.000318136, No Iterations 1
DILUPBiCGStab:  Solving for Uy, Initial residual = 0.031822, Final residual = 0.000388986, No Iterations 1
DILUPBiCGStab:  Solving for Uz, Initial residual = 0.0321184, Final residual = 0.000388085, No Iterations 1
DILUPBiCGStab:  Solving for T, Initial residual = 0.268501, Final residual = 0.00863059, No Iterations 1
DICPCG:  Solving for p_rgh, Initial residual = 8.63928e-11, Final residual = 8.63928e-11, No Iterations 0
time step continuity errors : sum local = 2.85668e-10, global = -9.47421e-27, cumulative = -3.22415e-26
DILUPBiCGStab:  Solving for epsilon, Initial residual = 0.939725, Final residual = 3.29861e-06, No Iterations 1
bounding epsilon, min: 2.24078e-23 max: 6.86022e-15 average: 7.40237e-16
DILUPBiCGStab:  Solving for k, Initial residual = 1.4027e-05, Final residual = 1.93098e-06, No Iterations 1
bounding k, min: -9.48728e-16 max: 4.47054e-10 average: 5.98376e-11
ExecutionTime = 211.82 s  ClockTime = 222 s

Time = 1000

DILUPBiCGStab:  Solving for Ux, Initial residual = 0.0270423, Final residual = 0.000322745, No Iterations 1
DILUPBiCGStab:  Solving for Uy, Initial residual = 0.0314572, Final residual = 0.000384223, No Iterations 1
DILUPBiCGStab:  Solving for Uz, Initial residual = 0.0314253, Final residual = 0.00037459, No Iterations 1
DILUPBiCGStab:  Solving for T, Initial residual = 0.270667, Final residual = 0.00874618, No Iterations 1
DICPCG:  Solving for p_rgh, Initial residual = 8.6716e-11, Final residual = 8.6716e-11, No Iterations 0
time step continuity errors : sum local = 2.86774e-10, global = -5.61597e-27, cumulative = -3.78575e-26
DILUPBiCGStab:  Solving for epsilon, Initial residual = 0.977093, Final residual = 3.31149e-06, No Iterations 1
bounding epsilon, min: 2.24078e-23 max: 6.62921e-15 average: 7.20309e-16
DILUPBiCGStab:  Solving for k, Initial residual = 1.42763e-05, Final residual = 1.92609e-06, No Iterations 1
bounding k, min: -9.24552e-15 max: 4.34259e-10 average: 5.69875e-11
ExecutionTime = 212.82 s  ClockTime = 223 s

    functionObjects::CourantNo CourantNo writing field: Co
End

