/*---------------------------------------------------------------------------*\
| =========                 |                                                 |
| \\      /  F ield         | OpenFOAM: The Open Source CFD Toolbox           |
|  \\    /   O peration     | Version:  2012                                  |
|   \\  /    A nd           | Website:  www.openfoam.com                      |
|    \\/     M anipulation  |                                                 |
\*---------------------------------------------------------------------------*/
Build  : _269d0ffd5c-20210619 OPENFOAM=2012 patch=210618
Arch   : "LSB;label=32;scalar=64"
Exec   : /usr/lib/openfoam/openfoam2012/platforms/linux64GccDPInt32Opt/bin/buoyantBoussinesqSimpleFoam
Date   : Aug 22 2022
Time   : 23:12:43
Host   : 524f94ff4984
PID    : 1525
I/O    : uncollated
Case   : /home/openfoam/of2012_projects/hotRoom4_B
nProcs : 1
trapFpe: Floating point exception trapping enabled (FOAM_SIGFPE).
fileModificationChecking : Monitoring run-time modified files using timeStampMaster (fileModificationSkew 5, maxFileModificationPolls 20)
allowSystemOperations : Allowing user-supplied system call operations

// * * * * * * * * * * * * * * * * * * * * * * * * * * * * * * * * * * * * * //
Create time

Create mesh for time = 0


SIMPLE: convergence criteria
    field p_rgh	 tolerance 0.01
    field U	 tolerance 0.0001
    field T	 tolerance 0.01
    field "(k|epsilon|omega)"	 tolerance 0.001

Reading thermophysical properties

Reading field T

Reading field p_rgh

Reading field U

Reading/calculating face flux field phi

Selecting incompressible transport model Newtonian
Creating turbulence model

Selecting turbulence model type RAS
Selecting RAS turbulence model kEpsilon
RAS
{
    RASModel        kEpsilon;
    turbulence      on;
    printCoeffs     on;
    Cmu             0.09;
    C1              1.44;
    C2              1.92;
    C3              0;
    sigmak          1;
    sigmaEps        1.3;
}

Reading field alphat


Reading g

Reading hRef
Calculating field g.h

No MRF models present

Radiation model not active: radiationProperties not found
Selecting radiationModel none
No finite volume options present

Starting time loop

Time = 1

DILUPBiCGStab:  Solving for Ux, Initial residual = 1, Final residual = 0.00213033, No Iterations 1
DILUPBiCGStab:  Solving for Uy, Initial residual = 1, Final residual = 0.0093318, No Iterations 1
DILUPBiCGStab:  Solving for Uz, Initial residual = 1, Final residual = 0.00289743, No Iterations 1
DILUPBiCGStab:  Solving for T, Initial residual = 0.478767, Final residual = 0.0151205, No Iterations 1
DICPCG:  Solving for p_rgh, Initial residual = 1, Final residual = 16.461, No Iterations 1000
time step continuity errors : sum local = 337.257, global = -0.338063, cumulative = -0.338063
DILUPBiCGStab:  Solving for epsilon, Initial residual = 0.994299, Final residual = 0.0302949, No Iterations 1
DILUPBiCGStab:  Solving for k, Initial residual = 1, Final residual = 0.0414784, No Iterations 1
ExecutionTime = 6.56 s  ClockTime = 6 s

Time = 2

DILUPBiCGStab:  Solving for Ux, Initial residual = 0.192839, Final residual = 0.00220668, No Iterations 1
DILUPBiCGStab:  Solving for Uy, Initial residual = 0.1963, Final residual = 0.00225958, No Iterations 1
DILUPBiCGStab:  Solving for Uz, Initial residual = 0.20058, Final residual = 0.00215604, No Iterations 1
DILUPBiCGStab:  Solving for T, Initial residual = 0.413072, Final residual = 0.0311306, No Iterations 1
DICPCG:  Solving for p_rgh, Initial residual = 8.76445e-09, Final residual = 8.76445e-09, No Iterations 0
time step continuity errors : sum local = 64.9844, global = -0.560249, cumulative = -0.898311
DILUPBiCGStab:  Solving for epsilon, Initial residual = 0.894927, Final residual = 0.00873894, No Iterations 1
DILUPBiCGStab:  Solving for k, Initial residual = 0.977424, Final residual = 0.0143366, No Iterations 1
ExecutionTime = 7.04 s  ClockTime = 7 s

Time = 3

DILUPBiCGStab:  Solving for Ux, Initial residual = 0.199526, Final residual = 0.00204463, No Iterations 1
DILUPBiCGStab:  Solving for Uy, Initial residual = 0.208821, Final residual = 0.00195871, No Iterations 1
DILUPBiCGStab:  Solving for Uz, Initial residual = 0.235726, Final residual = 0.00168763, No Iterations 1
DILUPBiCGStab:  Solving for T, Initial residual = 0.479497, Final residual = 0.0102698, No Iterations 1
DICPCG:  Solving for p_rgh, Initial residual = 1.4036e-08, Final residual = 3.02283e-09, No Iterations 1
time step continuity errors : sum local = 10.0318, global = -0.992385, cumulative = -1.8907
DILUPBiCGStab:  Solving for epsilon, Initial residual = 0.119429, Final residual = 0.000160234, No Iterations 1
bounding epsilon, min: -364.433 max: 787210 average: 894.549
DILUPBiCGStab:  Solving for k, Initial residual = 0.599723, Final residual = 0.0108423, No Iterations 1
ExecutionTime = 7.56 s  ClockTime = 8 s

Time = 4

DILUPBiCGStab:  Solving for Ux, Initial residual = 0.314619, Final residual = 0.00155599, No Iterations 1
DILUPBiCGStab:  Solving for Uy, Initial residual = 0.366846, Final residual = 0.00188861, No Iterations 1
DILUPBiCGStab:  Solving for Uz, Initial residual = 0.304042, Final residual = 0.00407137, No Iterations 1
DILUPBiCGStab:  Solving for T, Initial residual = 0.34623, Final residual = 9.99719e-05, No Iterations 1
DICPCG:  Solving for p_rgh, Initial residual = 1.31662e-06, Final residual = 1.16442e-08, No Iterations 730
time step continuity errors : sum local = 1.12717e+06, global = -2148.77, cumulative = -2150.66
DILUPBiCGStab:  Solving for epsilon, Initial residual = 0.99789, Final residual = 0.00847721, No Iterations 1
DILUPBiCGStab:  Solving for k, Initial residual = 0.99944, Final residual = 0.0208445, No Iterations 1
ExecutionTime = 11.61 s  ClockTime = 12 s

Time = 5

DILUPBiCGStab:  Solving for Ux, Initial residual = 0.194576, Final residual = 0.00199378, No Iterations 1
DILUPBiCGStab:  Solving for Uy, Initial residual = 0.255491, Final residual = 0.00373949, No Iterations 1
DILUPBiCGStab:  Solving for Uz, Initial residual = 0.231484, Final residual = 0.00343769, No Iterations 1
DILUPBiCGStab:  Solving for T, Initial residual = 0.459625, Final residual = 0.0103883, No Iterations 1
DICPCG:  Solving for p_rgh, Initial residual = 3.90194e-07, Final residual = 0.00125711, No Iterations 1000
time step continuity errors : sum local = 8.95785e+08, global = -1936.52, cumulative = -4087.18
DILUPBiCGStab:  Solving for epsilon, Initial residual = 0.999975, Final residual = 0.0338641, No Iterations 1
DILUPBiCGStab:  Solving for k, Initial residual = 1, Final residual = 0.0402025, No Iterations 1
ExecutionTime = 16.98 s  ClockTime = 17 s

Time = 6

DILUPBiCGStab:  Solving for Ux, Initial residual = 0.2935, Final residual = 0.00181152, No Iterations 1
DILUPBiCGStab:  Solving for Uy, Initial residual = 0.321807, Final residual = 0.00249768, No Iterations 1
DILUPBiCGStab:  Solving for Uz, Initial residual = 0.224011, Final residual = 0.0019806, No Iterations 1
DILUPBiCGStab:  Solving for T, Initial residual = 0.504617, Final residual = 0.00940698, No Iterations 1
DICPCG:  Solving for p_rgh, Initial residual = 1, Final residual = 4576.32, No Iterations 1000
time step continuity errors : sum local = 4.16943e+12, global = 1.03647e+06, cumulative = 1.03239e+06
DILUPBiCGStab:  Solving for epsilon, Initial residual = 0.0305902, Final residual = 1.05435e-12, No Iterations 1
bounding epsilon, min: -4.74837e+24 max: 1.09719e+29 average: 8.65839e+25
DILUPBiCGStab:  Solving for k, Initial residual = 0.427007, Final residual = 0.00962638, No Iterations 1
bounding k, min: -6.15308e+15 max: 3.09512e+27 average: 6.45889e+24
ExecutionTime = 22.38 s  ClockTime = 22 s

Time = 7

DILUPBiCGStab:  Solving for Ux, Initial residual = 0.556904, Final residual = 1.64149e-10, No Iterations 1
DILUPBiCGStab:  Solving for Uy, Initial residual = 0.256142, Final residual = 6.91207e-11, No Iterations 1
DILUPBiCGStab:  Solving for Uz, Initial residual = 0.271574, Final residual = 1.04599e-10, No Iterations 1
DILUPBiCGStab:  Solving for T, Initial residual = 0.0746269, Final residual = 1.08392e-10, No Iterations 1
DICPCG:  Solving for p_rgh, Initial residual = 0.800325, Final residual = 32.1888, No Iterations 1000
time step continuity errors : sum local = 3.10683e+27, global = 1.95713e+24, cumulative = 1.95713e+24
DILUPBiCGStab:  Solving for epsilon, Initial residual = 0.166402, Final residual = 0.00021793, No Iterations 1
DILUPBiCGStab:  Solving for k, Initial residual = 1, Final residual = 0.0699512, No Iterations 1
bounding k, min: -7.58308e+15 max: 1.43668e+44 average: 2.12653e+41
ExecutionTime = 27.91 s  ClockTime = 28 s

Time = 8

DILUPBiCGStab:  Solving for Ux, Initial residual = 0.317681, Final residual = 0.00584048, No Iterations 1
DILUPBiCGStab:  Solving for Uy, Initial residual = 0.334735, Final residual = 0.00745762, No Iterations 1
DILUPBiCGStab:  Solving for Uz, Initial residual = 0.284629, Final residual = 0.00583838, No Iterations 1
DILUPBiCGStab:  Solving for T, Initial residual = 0.819214, Final residual = 0.0521298, No Iterations 1
DICPCG:  Solving for p_rgh, Initial residual = 0.606739, Final residual = nan, No Iterations 1000
time step continuity errors : sum local = nan, global = -nan, cumulative = -nan
DILUPBiCGStab:  Solving for epsilon, Initial residual = nan, Final residual = nan, No Iterations 1000
DILUPBiCGStab:  Solving for k, Initial residual = nan, Final residual = nan, No Iterations 1000
ExecutionTime = 75.28 s  ClockTime = 75 s



--> FOAM FATAL IO ERROR: (openfoam-2012 patch=210618)
Wrong token type - expected scalar value, found on line 0: word 'nan'

file: /home/openfoam/of2012_projects/hotRoom4_B/system/data.solverPerformance.p_rgh at line 0.

    From Foam::Istream& Foam::operator>>(Foam::Istream&, Foam::doubleScalar&)
    in file lnInclude/Scalar.C at line 154.

FOAM exiting

