/*---------------------------------------------------------------------------*\
| =========                 |                                                 |
| \\      /  F ield         | OpenFOAM: The Open Source CFD Toolbox           |
|  \\    /   O peration     | Version:  2012                                  |
|   \\  /    A nd           | Website:  www.openfoam.com                      |
|    \\/     M anipulation  |                                                 |
\*---------------------------------------------------------------------------*/
Build  : _269d0ffd5c-20210619 OPENFOAM=2012 patch=210618
Arch   : "LSB;label=32;scalar=64"
Exec   : /usr/lib/openfoam/openfoam2012/platforms/linux64GccDPInt32Opt/bin/buoyantBoussinesqSimpleFoam
Date   : Aug 22 2022
Time   : 21:55:31
Host   : 524f94ff4984
PID    : 781
I/O    : uncollated
Case   : /home/openfoam/of2012_projects/hotRoom4_B
nProcs : 1
trapFpe: Floating point exception trapping enabled (FOAM_SIGFPE).
fileModificationChecking : Monitoring run-time modified files using timeStampMaster (fileModificationSkew 5, maxFileModificationPolls 20)
allowSystemOperations : Allowing user-supplied system call operations

// * * * * * * * * * * * * * * * * * * * * * * * * * * * * * * * * * * * * * //
Create time

Create mesh for time = 0


SIMPLE: convergence criteria
    field p_rgh	 tolerance 0.01
    field U	 tolerance 0.0001
    field T	 tolerance 0.01
    field "(k|epsilon|omega)"	 tolerance 0.001

Reading thermophysical properties

Reading field T

Reading field p_rgh

Reading field U

Reading/calculating face flux field phi

Selecting incompressible transport model Newtonian
Creating turbulence model

Selecting turbulence model type RAS
Selecting RAS turbulence model kEpsilon
RAS
{
    RASModel        kEpsilon;
    turbulence      on;
    printCoeffs     on;
    Cmu             0.09;
    C1              1.44;
    C2              1.92;
    C3              0;
    sigmak          1;
    sigmaEps        1.3;
}

Reading field alphat


Reading g

Reading hRef
Calculating field g.h

No MRF models present

Radiation model not active: radiationProperties not found
Selecting radiationModel none
No finite volume options present

Starting time loop

Time = 1

DILUPBiCGStab:  Solving for Ux, Initial residual = 1, Final residual = 0.0122499, No Iterations 1
DILUPBiCGStab:  Solving for Uy, Initial residual = 1, Final residual = 0.0124093, No Iterations 1
DILUPBiCGStab:  Solving for Uz, Initial residual = 1, Final residual = 0.0123005, No Iterations 1
DILUPBiCGStab:  Solving for T, Initial residual = 0.479785, Final residual = 0.0184133, No Iterations 1
DICPCG:  Solving for p_rgh, Initial residual = 1, Final residual = 0.00635014, No Iterations 5
time step continuity errors : sum local = 4.27328e-17, global = -1.76575e-33, cumulative = -1.76575e-33
DILUPBiCGStab:  Solving for epsilon, Initial residual = 0.122405, Final residual = 0.00801901, No Iterations 1
DILUPBiCGStab:  Solving for k, Initial residual = 1, Final residual = 0.017071, No Iterations 1
ExecutionTime = 1.06 s  ClockTime = 1 s

Time = 2

DILUPBiCGStab:  Solving for Ux, Initial residual = 0.790637, Final residual = 0.00856068, No Iterations 1
DILUPBiCGStab:  Solving for Uy, Initial residual = 0.777899, Final residual = 0.00877592, No Iterations 1
DILUPBiCGStab:  Solving for Uz, Initial residual = 0.792004, Final residual = 0.00876344, No Iterations 1
DILUPBiCGStab:  Solving for T, Initial residual = 0.411223, Final residual = 0.0135743, No Iterations 1
DICPCG:  Solving for p_rgh, Initial residual = 0.60442, Final residual = 0.00555086, No Iterations 270
time step continuity errors : sum local = 1.2454e-13, global = 1.5214e-30, cumulative = 1.51964e-30
DILUPBiCGStab:  Solving for epsilon, Initial residual = 0.0946153, Final residual = 0.008837, No Iterations 1
DILUPBiCGStab:  Solving for k, Initial residual = 0.680638, Final residual = 0.0115686, No Iterations 1
ExecutionTime = 2.17 s  ClockTime = 2 s

Time = 3

DILUPBiCGStab:  Solving for Ux, Initial residual = 0.316136, Final residual = 0.00425718, No Iterations 1
DILUPBiCGStab:  Solving for Uy, Initial residual = 0.316663, Final residual = 0.00429732, No Iterations 1
DILUPBiCGStab:  Solving for Uz, Initial residual = 0.301792, Final residual = 0.00389503, No Iterations 1
DILUPBiCGStab:  Solving for T, Initial residual = 0.39044, Final residual = 0.0125667, No Iterations 1
DICPCG:  Solving for p_rgh, Initial residual = 5.97994e-11, Final residual = 5.97994e-11, No Iterations 0
time step continuity errors : sum local = 1.39325e-13, global = 2.27179e-30, cumulative = 3.79143e-30
DILUPBiCGStab:  Solving for epsilon, Initial residual = 0.157153, Final residual = 0.00196065, No Iterations 1
DILUPBiCGStab:  Solving for k, Initial residual = 0.3358, Final residual = 0.00458321, No Iterations 1
ExecutionTime = 2.46 s  ClockTime = 3 s

Time = 4

DILUPBiCGStab:  Solving for Ux, Initial residual = 0.169475, Final residual = 0.0024784, No Iterations 1
DILUPBiCGStab:  Solving for Uy, Initial residual = 0.168843, Final residual = 0.00248396, No Iterations 1
DILUPBiCGStab:  Solving for Uz, Initial residual = 0.160906, Final residual = 0.00227503, No Iterations 1
DILUPBiCGStab:  Solving for T, Initial residual = 0.372275, Final residual = 0.0118636, No Iterations 1
DICPCG:  Solving for p_rgh, Initial residual = 5.99577e-11, Final residual = 5.99577e-11, No Iterations 0
time step continuity errors : sum local = 1.71304e-13, global = 4.25406e-30, cumulative = 8.04549e-30
DILUPBiCGStab:  Solving for epsilon, Initial residual = 0.192781, Final residual = 0.00273994, No Iterations 1
DILUPBiCGStab:  Solving for k, Initial residual = 0.199911, Final residual = 0.00245073, No Iterations 1
ExecutionTime = 2.76 s  ClockTime = 3 s

Time = 5

DILUPBiCGStab:  Solving for Ux, Initial residual = 0.110558, Final residual = 0.00170814, No Iterations 1
DILUPBiCGStab:  Solving for Uy, Initial residual = 0.109858, Final residual = 0.00171187, No Iterations 1
DILUPBiCGStab:  Solving for Uz, Initial residual = 0.104443, Final residual = 0.00156773, No Iterations 1
DILUPBiCGStab:  Solving for T, Initial residual = 0.370655, Final residual = 0.012021, No Iterations 1
DICPCG:  Solving for p_rgh, Initial residual = 6.0149e-11, Final residual = 6.0149e-11, No Iterations 0
time step continuity errors : sum local = 1.89373e-13, global = 1.54203e-30, cumulative = 9.58751e-30
DILUPBiCGStab:  Solving for epsilon, Initial residual = 0.186093, Final residual = 0.00258212, No Iterations 1
DILUPBiCGStab:  Solving for k, Initial residual = 0.148261, Final residual = 0.00188437, No Iterations 1
ExecutionTime = 3.05 s  ClockTime = 3 s

Time = 6

DILUPBiCGStab:  Solving for Ux, Initial residual = 0.0822283, Final residual = 0.00132166, No Iterations 1
DILUPBiCGStab:  Solving for Uy, Initial residual = 0.0827404, Final residual = 0.00131669, No Iterations 1
DILUPBiCGStab:  Solving for Uz, Initial residual = 0.077282, Final residual = 0.00120646, No Iterations 1
DILUPBiCGStab:  Solving for T, Initial residual = 0.368509, Final residual = 0.0121606, No Iterations 1
DICPCG:  Solving for p_rgh, Initial residual = 5.95619e-11, Final residual = 5.95619e-11, No Iterations 0
time step continuity errors : sum local = 2.02413e-13, global = 4.19298e-30, cumulative = 1.37805e-29
DILUPBiCGStab:  Solving for epsilon, Initial residual = 0.162283, Final residual = 0.0020885, No Iterations 1
DILUPBiCGStab:  Solving for k, Initial residual = 0.122032, Final residual = 0.00160363, No Iterations 1
ExecutionTime = 3.35 s  ClockTime = 4 s

Time = 7

DILUPBiCGStab:  Solving for Ux, Initial residual = 0.0658553, Final residual = 0.00107846, No Iterations 1
DILUPBiCGStab:  Solving for Uy, Initial residual = 0.0661926, Final residual = 0.00107578, No Iterations 1
DILUPBiCGStab:  Solving for Uz, Initial residual = 0.0620028, Final residual = 0.000988622, No Iterations 1
DILUPBiCGStab:  Solving for T, Initial residual = 0.37008, Final residual = 0.0118977, No Iterations 1
DICPCG:  Solving for p_rgh, Initial residual = 5.72048e-11, Final residual = 5.72048e-11, No Iterations 0
time step continuity errors : sum local = 2.1429e-13, global = 7.95603e-31, cumulative = 1.45761e-29
DILUPBiCGStab:  Solving for epsilon, Initial residual = 0.143532, Final residual = 0.00176107, No Iterations 1
DILUPBiCGStab:  Solving for k, Initial residual = 0.105492, Final residual = 0.00140648, No Iterations 1
ExecutionTime = 3.65 s  ClockTime = 4 s

Time = 8

DILUPBiCGStab:  Solving for Ux, Initial residual = 0.0565955, Final residual = 0.000936108, No Iterations 1
DILUPBiCGStab:  Solving for Uy, Initial residual = 0.0559961, Final residual = 0.000929336, No Iterations 1
DILUPBiCGStab:  Solving for Uz, Initial residual = 0.0524845, Final residual = 0.000847164, No Iterations 1
DILUPBiCGStab:  Solving for T, Initial residual = 0.362398, Final residual = 0.0120036, No Iterations 1
DICPCG:  Solving for p_rgh, Initial residual = 5.35674e-11, Final residual = 5.35674e-11, No Iterations 0
time step continuity errors : sum local = 2.26939e-13, global = 2.56211e-31, cumulative = 1.48323e-29
DILUPBiCGStab:  Solving for epsilon, Initial residual = 0.12976, Final residual = 0.00157603, No Iterations 1
DILUPBiCGStab:  Solving for k, Initial residual = 0.0938041, Final residual = 0.00125696, No Iterations 1
ExecutionTime = 3.96 s  ClockTime = 4 s

Time = 9

DILUPBiCGStab:  Solving for Ux, Initial residual = 0.049632, Final residual = 0.000826419, No Iterations 1
DILUPBiCGStab:  Solving for Uy, Initial residual = 0.0494026, Final residual = 0.000826679, No Iterations 1
DILUPBiCGStab:  Solving for Uz, Initial residual = 0.0454678, Final residual = 0.000746672, No Iterations 1
DILUPBiCGStab:  Solving for T, Initial residual = 0.367447, Final residual = 0.011586, No Iterations 1
DICPCG:  Solving for p_rgh, Initial residual = 4.93086e-11, Final residual = 4.93086e-11, No Iterations 0
time step continuity errors : sum local = 2.38646e-13, global = -8.8032e-30, cumulative = 6.02911e-30
DILUPBiCGStab:  Solving for epsilon, Initial residual = 0.118373, Final residual = 0.00143014, No Iterations 1
DILUPBiCGStab:  Solving for k, Initial residual = 0.0848167, Final residual = 0.00114172, No Iterations 1
ExecutionTime = 4.26 s  ClockTime = 4 s

Time = 10

DILUPBiCGStab:  Solving for Ux, Initial residual = 0.0445119, Final residual = 0.0007447, No Iterations 1
DILUPBiCGStab:  Solving for Uy, Initial residual = 0.0442321, Final residual = 0.000742771, No Iterations 1
DILUPBiCGStab:  Solving for Uz, Initial residual = 0.0406803, Final residual = 0.000676239, No Iterations 1
DILUPBiCGStab:  Solving for T, Initial residual = 0.35378, Final residual = 0.011541, No Iterations 1
DICPCG:  Solving for p_rgh, Initial residual = 4.51746e-11, Final residual = 4.51746e-11, No Iterations 0
time step continuity errors : sum local = 2.50265e-13, global = 1.68957e-30, cumulative = 7.71868e-30
DILUPBiCGStab:  Solving for epsilon, Initial residual = 0.108853, Final residual = 0.00132249, No Iterations 1
DILUPBiCGStab:  Solving for k, Initial residual = 0.0776515, Final residual = 0.00105072, No Iterations 1
ExecutionTime = 4.58 s  ClockTime = 5 s

Time = 11

DILUPBiCGStab:  Solving for Ux, Initial residual = 0.0404639, Final residual = 0.00067811, No Iterations 1
DILUPBiCGStab:  Solving for Uy, Initial residual = 0.0406964, Final residual = 0.0006812, No Iterations 1
DILUPBiCGStab:  Solving for Uz, Initial residual = 0.0370401, Final residual = 0.000619728, No Iterations 1
DILUPBiCGStab:  Solving for T, Initial residual = 0.353292, Final residual = 0.0113507, No Iterations 1
DICPCG:  Solving for p_rgh, Initial residual = 4.11842e-11, Final residual = 4.11842e-11, No Iterations 0
time step continuity errors : sum local = 2.61373e-13, global = -6.17445e-30, cumulative = 1.54423e-30
DILUPBiCGStab:  Solving for epsilon, Initial residual = 0.101018, Final residual = 0.00124246, No Iterations 1
DILUPBiCGStab:  Solving for k, Initial residual = 0.0718155, Final residual = 0.000977496, No Iterations 1
ExecutionTime = 4.88 s  ClockTime = 5 s

Time = 12

DILUPBiCGStab:  Solving for Ux, Initial residual = 0.0380116, Final residual = 0.000639046, No Iterations 1
DILUPBiCGStab:  Solving for Uy, Initial residual = 0.0395344, Final residual = 0.000676836, No Iterations 1
DILUPBiCGStab:  Solving for Uz, Initial residual = 0.034732, Final residual = 0.000580465, No Iterations 1
DILUPBiCGStab:  Solving for T, Initial residual = 0.35622, Final residual = 0.0114138, No Iterations 1
DICPCG:  Solving for p_rgh, Initial residual = 3.74341e-11, Final residual = 3.74341e-11, No Iterations 0
time step continuity errors : sum local = 2.72401e-13, global = -1.66101e-30, cumulative = -1.16783e-31
DILUPBiCGStab:  Solving for epsilon, Initial residual = 0.0945048, Final residual = 0.00117841, No Iterations 1
DILUPBiCGStab:  Solving for k, Initial residual = 0.0669691, Final residual = 0.000917284, No Iterations 1
ExecutionTime = 5.19 s  ClockTime = 5 s

Time = 13

DILUPBiCGStab:  Solving for Ux, Initial residual = 0.0352304, Final residual = 0.000591822, No Iterations 1
DILUPBiCGStab:  Solving for Uy, Initial residual = 0.0353127, Final residual = 0.000589842, No Iterations 1
DILUPBiCGStab:  Solving for Uz, Initial residual = 0.0322007, Final residual = 0.000538969, No Iterations 1
DILUPBiCGStab:  Solving for T, Initial residual = 0.347395, Final residual = 0.0111179, No Iterations 1
DICPCG:  Solving for p_rgh, Initial residual = 3.39434e-11, Final residual = 3.39434e-11, No Iterations 0
time step continuity errors : sum local = 2.82503e-13, global = 2.69696e-31, cumulative = 1.52913e-31
DILUPBiCGStab:  Solving for epsilon, Initial residual = 0.0889661, Final residual = 0.00112402, No Iterations 1
DILUPBiCGStab:  Solving for k, Initial residual = 0.0628748, Final residual = 0.000866819, No Iterations 1
ExecutionTime = 5.49 s  ClockTime = 6 s

Time = 14

DILUPBiCGStab:  Solving for Ux, Initial residual = 0.0328136, Final residual = 0.000552618, No Iterations 1
DILUPBiCGStab:  Solving for Uy, Initial residual = 0.0325569, Final residual = 0.000549222, No Iterations 1
DILUPBiCGStab:  Solving for Uz, Initial residual = 0.0296832, Final residual = 0.000496248, No Iterations 1
DILUPBiCGStab:  Solving for T, Initial residual = 0.351689, Final residual = 0.0114163, No Iterations 1
DICPCG:  Solving for p_rgh, Initial residual = 3.06064e-11, Final residual = 3.06064e-11, No Iterations 0
time step continuity errors : sum local = 2.92641e-13, global = 9.4235e-31, cumulative = 1.09526e-30
DILUPBiCGStab:  Solving for epsilon, Initial residual = 0.0841876, Final residual = 0.00107756, No Iterations 1
DILUPBiCGStab:  Solving for k, Initial residual = 0.0593753, Final residual = 0.00082384, No Iterations 1
ExecutionTime = 5.79 s  ClockTime = 6 s

Time = 15

DILUPBiCGStab:  Solving for Ux, Initial residual = 0.0313961, Final residual = 0.000532107, No Iterations 1
DILUPBiCGStab:  Solving for Uy, Initial residual = 0.0325555, Final residual = 0.000559464, No Iterations 1
DILUPBiCGStab:  Solving for Uz, Initial residual = 0.0283403, Final residual = 0.000476687, No Iterations 1
DILUPBiCGStab:  Solving for T, Initial residual = 0.345045, Final residual = 0.0112889, No Iterations 1
DICPCG:  Solving for p_rgh, Initial residual = 2.76896e-11, Final residual = 2.76896e-11, No Iterations 0
time step continuity errors : sum local = 3.03058e-13, global = -6.55996e-30, cumulative = -5.4647e-30
DILUPBiCGStab:  Solving for epsilon, Initial residual = 0.0800325, Final residual = 0.00103761, No Iterations 1
DILUPBiCGStab:  Solving for k, Initial residual = 0.0563488, Final residual = 0.000786731, No Iterations 1
ExecutionTime = 6.08 s  ClockTime = 6 s

Time = 16

DILUPBiCGStab:  Solving for Ux, Initial residual = 0.0302729, Final residual = 0.000510244, No Iterations 1
DILUPBiCGStab:  Solving for Uy, Initial residual = 0.0330232, Final residual = 0.000577367, No Iterations 1
DILUPBiCGStab:  Solving for Uz, Initial residual = 0.0275254, Final residual = 0.000460473, No Iterations 1
DILUPBiCGStab:  Solving for T, Initial residual = 0.352979, Final residual = 0.0115696, No Iterations 1
DICPCG:  Solving for p_rgh, Initial residual = 2.5064e-11, Final residual = 2.5064e-11, No Iterations 0
time step continuity errors : sum local = 3.14835e-13, global = 2.88416e-30, cumulative = -2.58054e-30
DILUPBiCGStab:  Solving for epsilon, Initial residual = 0.0763944, Final residual = 0.00100265, No Iterations 1
DILUPBiCGStab:  Solving for k, Initial residual = 0.0537039, Final residual = 0.000754235, No Iterations 1
ExecutionTime = 6.38 s  ClockTime = 7 s

Time = 17

DILUPBiCGStab:  Solving for Ux, Initial residual = 0.0280021, Final residual = 0.000474917, No Iterations 1
DILUPBiCGStab:  Solving for Uy, Initial residual = 0.0287936, Final residual = 0.000495628, No Iterations 1
DILUPBiCGStab:  Solving for Uz, Initial residual = 0.0255075, Final residual = 0.000433321, No Iterations 1
DILUPBiCGStab:  Solving for T, Initial residual = 0.352685, Final residual = 0.0112707, No Iterations 1
DICPCG:  Solving for p_rgh, Initial residual = 2.25318e-11, Final residual = 2.25318e-11, No Iterations 0
time step continuity errors : sum local = 3.24678e-13, global = -3.3712e-29, cumulative = -3.62925e-29
DILUPBiCGStab:  Solving for epsilon, Initial residual = 0.0731788, Final residual = 0.000971471, No Iterations 1
DILUPBiCGStab:  Solving for k, Initial residual = 0.0513721, Final residual = 0.00072547, No Iterations 1
ExecutionTime = 6.67 s  ClockTime = 7 s

Time = 18

DILUPBiCGStab:  Solving for Ux, Initial residual = 0.026431, Final residual = 0.000445798, No Iterations 1
DILUPBiCGStab:  Solving for Uy, Initial residual = 0.0274054, Final residual = 0.000470283, No Iterations 1
DILUPBiCGStab:  Solving for Uz, Initial residual = 0.0241929, Final residual = 0.000408975, No Iterations 1
DILUPBiCGStab:  Solving for T, Initial residual = 0.356472, Final residual = 0.0115274, No Iterations 1
DICPCG:  Solving for p_rgh, Initial residual = 2.02823e-11, Final residual = 2.02823e-11, No Iterations 0
time step continuity errors : sum local = 3.34568e-13, global = 2.67792e-29, cumulative = -9.51331e-30
DILUPBiCGStab:  Solving for epsilon, Initial residual = 0.0703107, Final residual = 0.000943225, No Iterations 1
DILUPBiCGStab:  Solving for k, Initial residual = 0.0492999, Final residual = 0.000699778, No Iterations 1
ExecutionTime = 6.96 s  ClockTime = 7 s

Time = 19

DILUPBiCGStab:  Solving for Ux, Initial residual = 0.0257029, Final residual = 0.000436771, No Iterations 1
DILUPBiCGStab:  Solving for Uy, Initial residual = 0.0262831, Final residual = 0.000443291, No Iterations 1
DILUPBiCGStab:  Solving for Uz, Initial residual = 0.0234936, Final residual = 0.000399464, No Iterations 1
DILUPBiCGStab:  Solving for T, Initial residual = 0.352952, Final residual = 0.0113004, No Iterations 1
DICPCG:  Solving for p_rgh, Initial residual = 1.81997e-11, Final residual = 1.81997e-11, No Iterations 0
time step continuity errors : sum local = 3.44702e-13, global = 1.52505e-29, cumulative = 5.73721e-30
DILUPBiCGStab:  Solving for epsilon, Initial residual = 0.067738, Final residual = 0.000917478, No Iterations 1
DILUPBiCGStab:  Solving for k, Initial residual = 0.0474467, Final residual = 0.000676669, No Iterations 1
ExecutionTime = 7.27 s  ClockTime = 8 s

Time = 20

DILUPBiCGStab:  Solving for Ux, Initial residual = 0.0242732, Final residual = 0.000413775, No Iterations 1
DILUPBiCGStab:  Solving for Uy, Initial residual = 0.0258102, Final residual = 0.000441218, No Iterations 1
DILUPBiCGStab:  Solving for Uz, Initial residual = 0.022442, Final residual = 0.000382723, No Iterations 1
DILUPBiCGStab:  Solving for T, Initial residual = 0.350069, Final residual = 0.011505, No Iterations 1
DICPCG:  Solving for p_rgh, Initial residual = 1.63478e-11, Final residual = 1.63478e-11, No Iterations 0
time step continuity errors : sum local = 3.54227e-13, global = 2.22388e-29, cumulative = 2.7976e-29
DILUPBiCGStab:  Solving for epsilon, Initial residual = 0.0654172, Final residual = 0.000893866, No Iterations 1
DILUPBiCGStab:  Solving for k, Initial residual = 0.0457781, Final residual = 0.00065574, No Iterations 1
ExecutionTime = 7.66 s  ClockTime = 8 s

Time = 21

DILUPBiCGStab:  Solving for Ux, Initial residual = 0.0227784, Final residual = 0.000387686, No Iterations 1
DILUPBiCGStab:  Solving for Uy, Initial residual = 0.0244409, Final residual = 0.000418743, No Iterations 1
DILUPBiCGStab:  Solving for Uz, Initial residual = 0.0213146, Final residual = 0.000363852, No Iterations 1
DILUPBiCGStab:  Solving for T, Initial residual = 0.353276, Final residual = 0.0114857, No Iterations 1
DICPCG:  Solving for p_rgh, Initial residual = 1.46391e-11, Final residual = 1.46391e-11, No Iterations 0
time step continuity errors : sum local = 3.63849e-13, global = 2.09728e-29, cumulative = 4.89489e-29
DILUPBiCGStab:  Solving for epsilon, Initial residual = 0.0633089, Final residual = 0.000872031, No Iterations 1
DILUPBiCGStab:  Solving for k, Initial residual = 0.0442668, Final residual = 0.000636659, No Iterations 1
ExecutionTime = 7.98 s  ClockTime = 8 s

Time = 22

DILUPBiCGStab:  Solving for Ux, Initial residual = 0.0219334, Final residual = 0.000371204, No Iterations 1
DILUPBiCGStab:  Solving for Uy, Initial residual = 0.0233148, Final residual = 0.000393877, No Iterations 1
DILUPBiCGStab:  Solving for Uz, Initial residual = 0.0209579, Final residual = 0.000357103, No Iterations 1
DILUPBiCGStab:  Solving for T, Initial residual = 0.354362, Final residual = 0.0113616, No Iterations 1
DICPCG:  Solving for p_rgh, Initial residual = 1.31135e-11, Final residual = 1.31135e-11, No Iterations 0
time step continuity errors : sum local = 3.72876e-13, global = -1.69639e-29, cumulative = 3.1985e-29
DILUPBiCGStab:  Solving for epsilon, Initial residual = 0.0613856, Final residual = 0.00085176, No Iterations 1
DILUPBiCGStab:  Solving for k, Initial residual = 0.0428907, Final residual = 0.000619154, No Iterations 1
ExecutionTime = 8.27 s  ClockTime = 9 s

Time = 23

DILUPBiCGStab:  Solving for Ux, Initial residual = 0.0206712, Final residual = 0.000348277, No Iterations 1
DILUPBiCGStab:  Solving for Uy, Initial residual = 0.0222768, Final residual = 0.000380301, No Iterations 1
DILUPBiCGStab:  Solving for Uz, Initial residual = 0.0201355, Final residual = 0.000345457, No Iterations 1
DILUPBiCGStab:  Solving for T, Initial residual = 0.355282, Final residual = 0.0113378, No Iterations 1
DICPCG:  Solving for p_rgh, Initial residual = 1.17079e-11, Final residual = 1.17079e-11, No Iterations 0
time step continuity errors : sum local = 3.81069e-13, global = -1.05943e-29, cumulative = 2.13907e-29
DILUPBiCGStab:  Solving for epsilon, Initial residual = 0.0596234, Final residual = 0.000832845, No Iterations 1
DILUPBiCGStab:  Solving for k, Initial residual = 0.0416324, Final residual = 0.000603034, No Iterations 1
ExecutionTime = 8.57 s  ClockTime = 9 s

Time = 24

DILUPBiCGStab:  Solving for Ux, Initial residual = 0.019366, Final residual = 0.000328421, No Iterations 1
DILUPBiCGStab:  Solving for Uy, Initial residual = 0.0216445, Final residual = 0.000367296, No Iterations 1
DILUPBiCGStab:  Solving for Uz, Initial residual = 0.0194287, Final residual = 0.000332849, No Iterations 1
DILUPBiCGStab:  Solving for T, Initial residual = 0.347819, Final residual = 0.0112237, No Iterations 1
DICPCG:  Solving for p_rgh, Initial residual = 1.04751e-11, Final residual = 1.04751e-11, No Iterations 0
time step continuity errors : sum local = 3.90584e-13, global = 3.14783e-29, cumulative = 5.2869e-29
DILUPBiCGStab:  Solving for epsilon, Initial residual = 0.0580011, Final residual = 0.000815108, No Iterations 1
DILUPBiCGStab:  Solving for k, Initial residual = 0.040477, Final residual = 0.00058813, No Iterations 1
ExecutionTime = 8.87 s  ClockTime = 9 s

Time = 25

DILUPBiCGStab:  Solving for Ux, Initial residual = 0.0181921, Final residual = 0.000309326, No Iterations 1
DILUPBiCGStab:  Solving for Uy, Initial residual = 0.0207825, Final residual = 0.000351991, No Iterations 1
DILUPBiCGStab:  Solving for Uz, Initial residual = 0.0186139, Final residual = 0.000318214, No Iterations 1
DILUPBiCGStab:  Solving for T, Initial residual = 0.346408, Final residual = 0.0113117, No Iterations 1
DICPCG:  Solving for p_rgh, Initial residual = 9.38444e-12, Final residual = 9.38444e-12, No Iterations 0
time step continuity errors : sum local = 4.00186e-13, global = -4.88467e-30, cumulative = 4.79843e-29
DILUPBiCGStab:  Solving for epsilon, Initial residual = 0.056505, Final residual = 0.000798459, No Iterations 1
DILUPBiCGStab:  Solving for k, Initial residual = 0.0394123, Final residual = 0.000574297, No Iterations 1
ExecutionTime = 9.17 s  ClockTime = 10 s

Time = 26

DILUPBiCGStab:  Solving for Ux, Initial residual = 0.0171085, Final residual = 0.000291229, No Iterations 1
DILUPBiCGStab:  Solving for Uy, Initial residual = 0.0201019, Final residual = 0.000340783, No Iterations 1
DILUPBiCGStab:  Solving for Uz, Initial residual = 0.0181165, Final residual = 0.000312025, No Iterations 1
DILUPBiCGStab:  Solving for T, Initial residual = 0.349911, Final residual = 0.0111529, No Iterations 1
DICPCG:  Solving for p_rgh, Initial residual = 8.40643e-12, Final residual = 8.40643e-12, No Iterations 0
time step continuity errors : sum local = 4.10729e-13, global = -1.64261e-29, cumulative = 3.15582e-29
DILUPBiCGStab:  Solving for epsilon, Initial residual = 0.0551186, Final residual = 0.000782767, No Iterations 1
DILUPBiCGStab:  Solving for k, Initial residual = 0.0384276, Final residual = 0.000561416, No Iterations 1
ExecutionTime = 9.47 s  ClockTime = 10 s

Time = 27

DILUPBiCGStab:  Solving for Ux, Initial residual = 0.0159579, Final residual = 0.000270495, No Iterations 1
DILUPBiCGStab:  Solving for Uy, Initial residual = 0.0192247, Final residual = 0.00032449, No Iterations 1
DILUPBiCGStab:  Solving for Uz, Initial residual = 0.017496, Final residual = 0.000302539, No Iterations 1
DILUPBiCGStab:  Solving for T, Initial residual = 0.354656, Final residual = 0.0114409, No Iterations 1
DICPCG:  Solving for p_rgh, Initial residual = 7.52196e-12, Final residual = 7.52196e-12, No Iterations 0
time step continuity errors : sum local = 4.19872e-13, global = 9.50758e-30, cumulative = 4.10658e-29
DILUPBiCGStab:  Solving for epsilon, Initial residual = 0.0538305, Final residual = 0.000767945, No Iterations 1
DILUPBiCGStab:  Solving for k, Initial residual = 0.0375145, Final residual = 0.000549384, No Iterations 1
ExecutionTime = 9.75 s  ClockTime = 10 s

Time = 28

DILUPBiCGStab:  Solving for Ux, Initial residual = 0.0149747, Final residual = 0.000255777, No Iterations 1
DILUPBiCGStab:  Solving for Uy, Initial residual = 0.0184027, Final residual = 0.000313794, No Iterations 1
DILUPBiCGStab:  Solving for Uz, Initial residual = 0.016888, Final residual = 0.000290833, No Iterations 1
DILUPBiCGStab:  Solving for T, Initial residual = 0.354119, Final residual = 0.0114474, No Iterations 1
DICPCG:  Solving for p_rgh, Initial residual = 6.76777e-12, Final residual = 6.76777e-12, No Iterations 0
time step continuity errors : sum local = 4.31059e-13, global = -9.13794e-31, cumulative = 4.0152e-29
DILUPBiCGStab:  Solving for epsilon, Initial residual = 0.05263, Final residual = 0.000753926, No Iterations 1
DILUPBiCGStab:  Solving for k, Initial residual = 0.0366648, Final residual = 0.000538118, No Iterations 1
ExecutionTime = 10.05 s  ClockTime = 10 s

Time = 29

DILUPBiCGStab:  Solving for Ux, Initial residual = 0.0140004, Final residual = 0.000239007, No Iterations 1
DILUPBiCGStab:  Solving for Uy, Initial residual = 0.0178871, Final residual = 0.000304205, No Iterations 1
DILUPBiCGStab:  Solving for Uz, Initial residual = 0.0162783, Final residual = 0.000279458, No Iterations 1
DILUPBiCGStab:  Solving for T, Initial residual = 0.350523, Final residual = 0.0112664, No Iterations 1
DICPCG:  Solving for p_rgh, Initial residual = 6.07027e-12, Final residual = 6.07027e-12, No Iterations 0
time step continuity errors : sum local = 4.41802e-13, global = -4.34528e-30, cumulative = 3.58067e-29
DILUPBiCGStab:  Solving for epsilon, Initial residual = 0.0515075, Final residual = 0.000740625, No Iterations 1
DILUPBiCGStab:  Solving for k, Initial residual = 0.0358723, Final residual = 0.000527548, No Iterations 1
ExecutionTime = 10.34 s  ClockTime = 11 s

Time = 30

DILUPBiCGStab:  Solving for Ux, Initial residual = 0.0128937, Final residual = 0.000219583, No Iterations 1
DILUPBiCGStab:  Solving for Uy, Initial residual = 0.0170506, Final residual = 0.00029143, No Iterations 1
DILUPBiCGStab:  Solving for Uz, Initial residual = 0.015772, Final residual = 0.000271341, No Iterations 1
DILUPBiCGStab:  Solving for T, Initial residual = 0.348119, Final residual = 0.0113054, No Iterations 1
DICPCG:  Solving for p_rgh, Initial residual = 5.44288e-12, Final residual = 5.44288e-12, No Iterations 0
time step continuity errors : sum local = 4.52648e-13, global = 1.29613e-30, cumulative = 3.71029e-29
DILUPBiCGStab:  Solving for epsilon, Initial residual = 0.0504548, Final residual = 0.000727981, No Iterations 1
DILUPBiCGStab:  Solving for k, Initial residual = 0.035131, Final residual = 0.000517603, No Iterations 1
ExecutionTime = 10.63 s  ClockTime = 11 s

Time = 31

DILUPBiCGStab:  Solving for Ux, Initial residual = 0.011945, Final residual = 0.000203661, No Iterations 1
DILUPBiCGStab:  Solving for Uy, Initial residual = 0.016383, Final residual = 0.000277144, No Iterations 1
DILUPBiCGStab:  Solving for Uz, Initial residual = 0.0152302, Final residual = 0.00026141, No Iterations 1
DILUPBiCGStab:  Solving for T, Initial residual = 0.342633, Final residual = 0.011172, No Iterations 1
DICPCG:  Solving for p_rgh, Initial residual = 4.8943e-12, Final residual = 4.8943e-12, No Iterations 0
time step continuity errors : sum local = 4.63052e-13, global = -4.31974e-29, cumulative = -6.09452e-30
DILUPBiCGStab:  Solving for epsilon, Initial residual = 0.0494649, Final residual = 0.000715937, No Iterations 1
DILUPBiCGStab:  Solving for k, Initial residual = 0.0344357, Final residual = 0.000508222, No Iterations 1
ExecutionTime = 10.92 s  ClockTime = 11 s

Time = 32

DILUPBiCGStab:  Solving for Ux, Initial residual = 0.011013, Final residual = 0.000186556, No Iterations 1
DILUPBiCGStab:  Solving for Uy, Initial residual = 0.0157112, Final residual = 0.000268547, No Iterations 1
DILUPBiCGStab:  Solving for Uz, Initial residual = 0.0148938, Final residual = 0.000255746, No Iterations 1
DILUPBiCGStab:  Solving for T, Initial residual = 0.346839, Final residual = 0.0113081, No Iterations 1
DICPCG:  Solving for p_rgh, Initial residual = 4.40492e-12, Final residual = 4.40492e-12, No Iterations 0
time step continuity errors : sum local = 4.7476e-13, global = 3.63931e-29, cumulative = 3.02986e-29
DILUPBiCGStab:  Solving for epsilon, Initial residual = 0.0485321, Final residual = 0.000704443, No Iterations 1
DILUPBiCGStab:  Solving for k, Initial residual = 0.033782, Final residual = 0.00049936, No Iterations 1
ExecutionTime = 11.2 s  ClockTime = 12 s

Time = 33

DILUPBiCGStab:  Solving for Ux, Initial residual = 0.0106828, Final residual = 0.000182117, No Iterations 1
DILUPBiCGStab:  Solving for Uy, Initial residual = 0.0160872, Final residual = 0.000274255, No Iterations 1
DILUPBiCGStab:  Solving for Uz, Initial residual = 0.0154246, Final residual = 0.000265005, No Iterations 1
DILUPBiCGStab:  Solving for T, Initial residual = 0.343947, Final residual = 0.0111742, No Iterations 1
DICPCG:  Solving for p_rgh, Initial residual = 3.95926e-12, Final residual = 3.95926e-12, No Iterations 0
time step continuity errors : sum local = 4.84769e-13, global = -4.63084e-30, cumulative = 2.56677e-29
DILUPBiCGStab:  Solving for epsilon, Initial residual = 0.0476514, Final residual = 0.000693464, No Iterations 1
DILUPBiCGStab:  Solving for k, Initial residual = 0.0331666, Final residual = 0.000490975, No Iterations 1
ExecutionTime = 11.49 s  ClockTime = 12 s

Time = 34

DILUPBiCGStab:  Solving for Ux, Initial residual = 0.00979249, Final residual = 0.000168387, No Iterations 1
DILUPBiCGStab:  Solving for Uy, Initial residual = 0.0150497, Final residual = 0.000253894, No Iterations 1
DILUPBiCGStab:  Solving for Uz, Initial residual = 0.015024, Final residual = 0.000257107, No Iterations 1
DILUPBiCGStab:  Solving for T, Initial residual = 0.343085, Final residual = 0.0110785, No Iterations 1
DICPCG:  Solving for p_rgh, Initial residual = 3.56092e-12, Final residual = 3.56092e-12, No Iterations 0
time step continuity errors : sum local = 4.96303e-13, global = 5.79371e-30, cumulative = 3.14614e-29
DILUPBiCGStab:  Solving for epsilon, Initial residual = 0.0468178, Final residual = 0.000682961, No Iterations 1
DILUPBiCGStab:  Solving for k, Initial residual = 0.0325859, Final residual = 0.000483026, No Iterations 1
ExecutionTime = 11.78 s  ClockTime = 12 s

Time = 35

DILUPBiCGStab:  Solving for Ux, Initial residual = 0.00907713, Final residual = 0.000155406, No Iterations 1
DILUPBiCGStab:  Solving for Uy, Initial residual = 0.0140376, Final residual = 0.000237567, No Iterations 1
DILUPBiCGStab:  Solving for Uz, Initial residual = 0.0147975, Final residual = 0.000252549, No Iterations 1
DILUPBiCGStab:  Solving for T, Initial residual = 0.343058, Final residual = 0.0111657, No Iterations 1
DICPCG:  Solving for p_rgh, Initial residual = 3.22453e-12, Final residual = 3.22453e-12, No Iterations 0
time step continuity errors : sum local = 5.09406e-13, global = -6.95498e-30, cumulative = 2.45065e-29
DILUPBiCGStab:  Solving for epsilon, Initial residual = 0.0460278, Final residual = 0.000672905, No Iterations 1
DILUPBiCGStab:  Solving for k, Initial residual = 0.0320371, Final residual = 0.000475486, No Iterations 1
ExecutionTime = 12.07 s  ClockTime = 13 s

Time = 36

DILUPBiCGStab:  Solving for Ux, Initial residual = 0.00846399, Final residual = 0.000144144, No Iterations 1
DILUPBiCGStab:  Solving for Uy, Initial residual = 0.0133406, Final residual = 0.000229021, No Iterations 1
DILUPBiCGStab:  Solving for Uz, Initial residual = 0.0147105, Final residual = 0.000250226, No Iterations 1
DILUPBiCGStab:  Solving for T, Initial residual = 0.341154, Final residual = 0.0109734, No Iterations 1
DICPCG:  Solving for p_rgh, Initial residual = 2.91399e-12, Final residual = 2.91399e-12, No Iterations 0
time step continuity errors : sum local = 5.22262e-13, global = -1.22791e-29, cumulative = 1.22274e-29
DILUPBiCGStab:  Solving for epsilon, Initial residual = 0.0452773, Final residual = 0.00066326, No Iterations 1
DILUPBiCGStab:  Solving for k, Initial residual = 0.0315174, Final residual = 0.000468315, No Iterations 1
ExecutionTime = 12.36 s  ClockTime = 13 s

Time = 37

DILUPBiCGStab:  Solving for Ux, Initial residual = 0.00791989, Final residual = 0.000136535, No Iterations 1
DILUPBiCGStab:  Solving for Uy, Initial residual = 0.0134162, Final residual = 0.000235388, No Iterations 1
DILUPBiCGStab:  Solving for Uz, Initial residual = 0.0147632, Final residual = 0.000249496, No Iterations 1
DILUPBiCGStab:  Solving for T, Initial residual = 0.342111, Final residual = 0.0109946, No Iterations 1
DICPCG:  Solving for p_rgh, Initial residual = 2.64003e-12, Final residual = 2.64003e-12, No Iterations 0
time step continuity errors : sum local = 5.35339e-13, global = 3.56792e-29, cumulative = 4.79066e-29
DILUPBiCGStab:  Solving for epsilon, Initial residual = 0.0445629, Final residual = 0.000653995, No Iterations 1
DILUPBiCGStab:  Solving for k, Initial residual = 0.0310247, Final residual = 0.000461491, No Iterations 1
ExecutionTime = 12.65 s  ClockTime = 13 s

Time = 38

DILUPBiCGStab:  Solving for Ux, Initial residual = 0.00723867, Final residual = 0.000125024, No Iterations 1
DILUPBiCGStab:  Solving for Uy, Initial residual = 0.0123681, Final residual = 0.00021656, No Iterations 1
DILUPBiCGStab:  Solving for Uz, Initial residual = 0.0140337, Final residual = 0.000240008, No Iterations 1
DILUPBiCGStab:  Solving for T, Initial residual = 0.337768, Final residual = 0.0109988, No Iterations 1
DICPCG:  Solving for p_rgh, Initial residual = 2.39782e-12, Final residual = 2.39782e-12, No Iterations 0
time step continuity errors : sum local = 5.50837e-13, global = 2.52673e-29, cumulative = 7.31739e-29
DILUPBiCGStab:  Solving for epsilon, Initial residual = 0.0438818, Final residual = 0.000645087, No Iterations 1
DILUPBiCGStab:  Solving for k, Initial residual = 0.0305568, Final residual = 0.000454986, No Iterations 1
ExecutionTime = 12.94 s  ClockTime = 13 s

Time = 39

DILUPBiCGStab:  Solving for Ux, Initial residual = 0.00664438, Final residual = 0.00011418, No Iterations 1
DILUPBiCGStab:  Solving for Uy, Initial residual = 0.0114775, Final residual = 0.000199308, No Iterations 1
DILUPBiCGStab:  Solving for Uz, Initial residual = 0.0137983, Final residual = 0.000234802, No Iterations 1
DILUPBiCGStab:  Solving for T, Initial residual = 0.339356, Final residual = 0.010925, No Iterations 1
DICPCG:  Solving for p_rgh, Initial residual = 2.18362e-12, Final residual = 2.18362e-12, No Iterations 0
time step continuity errors : sum local = 5.65708e-13, global = -1.24092e-29, cumulative = 6.07647e-29
DILUPBiCGStab:  Solving for epsilon, Initial residual = 0.0432322, Final residual = 0.000636523, No Iterations 1
DILUPBiCGStab:  Solving for k, Initial residual = 0.0301117, Final residual = 0.000448778, No Iterations 1
ExecutionTime = 13.23 s  ClockTime = 14 s

Time = 40

DILUPBiCGStab:  Solving for Ux, Initial residual = 0.00605729, Final residual = 0.00010407, No Iterations 1
DILUPBiCGStab:  Solving for Uy, Initial residual = 0.0107855, Final residual = 0.000186986, No Iterations 1
DILUPBiCGStab:  Solving for Uz, Initial residual = 0.0133405, Final residual = 0.000228379, No Iterations 1
DILUPBiCGStab:  Solving for T, Initial residual = 0.339799, Final residual = 0.011093, No Iterations 1
DICPCG:  Solving for p_rgh, Initial residual = 1.98577e-12, Final residual = 1.98577e-12, No Iterations 0
time step continuity errors : sum local = 5.80465e-13, global = 5.05775e-29, cumulative = 1.11342e-28
DILUPBiCGStab:  Solving for epsilon, Initial residual = 0.0426117, Final residual = 0.000628279, No Iterations 1
DILUPBiCGStab:  Solving for k, Initial residual = 0.029688, Final residual = 0.000442846, No Iterations 1
ExecutionTime = 13.51 s  ClockTime = 14 s

Time = 41

DILUPBiCGStab:  Solving for Ux, Initial residual = 0.00562217, Final residual = 9.59742e-05, No Iterations 1
DILUPBiCGStab:  Solving for Uy, Initial residual = 0.00983888, Final residual = 0.000168037, No Iterations 1
DILUPBiCGStab:  Solving for Uz, Initial residual = 0.0135123, Final residual = 0.000230457, No Iterations 1
DILUPBiCGStab:  Solving for T, Initial residual = 0.337876, Final residual = 0.0109663, No Iterations 1
DICPCG:  Solving for p_rgh, Initial residual = 1.8057e-12, Final residual = 1.8057e-12, No Iterations 0
time step continuity errors : sum local = 5.95669e-13, global = 2.71854e-29, cumulative = 1.38528e-28
DILUPBiCGStab:  Solving for epsilon, Initial residual = 0.0420184, Final residual = 0.000620343, No Iterations 1
DILUPBiCGStab:  Solving for k, Initial residual = 0.029284, Final residual = 0.000437176, No Iterations 1
ExecutionTime = 13.8 s  ClockTime = 14 s

Time = 42

DILUPBiCGStab:  Solving for Ux, Initial residual = 0.00523938, Final residual = 8.98225e-05, No Iterations 1
DILUPBiCGStab:  Solving for Uy, Initial residual = 0.00983824, Final residual = 0.000166409, No Iterations 1
DILUPBiCGStab:  Solving for Uz, Initial residual = 0.0139326, Final residual = 0.000235725, No Iterations 1
DILUPBiCGStab:  Solving for T, Initial residual = 0.339962, Final residual = 0.0107128, No Iterations 1
DICPCG:  Solving for p_rgh, Initial residual = 1.64743e-12, Final residual = 1.64743e-12, No Iterations 0
time step continuity errors : sum local = 6.09137e-13, global = 1.52299e-29, cumulative = 1.53757e-28
DILUPBiCGStab:  Solving for epsilon, Initial residual = 0.0414506, Final residual = 0.000612696, No Iterations 1
DILUPBiCGStab:  Solving for k, Initial residual = 0.0288985, Final residual = 0.000431751, No Iterations 1
ExecutionTime = 14.09 s  ClockTime = 15 s

Time = 43

DILUPBiCGStab:  Solving for Ux, Initial residual = 0.00462336, Final residual = 7.88101e-05, No Iterations 1
DILUPBiCGStab:  Solving for Uy, Initial residual = 0.00844871, Final residual = 0.000143466, No Iterations 1
DILUPBiCGStab:  Solving for Uz, Initial residual = 0.0130554, Final residual = 0.000224184, No Iterations 1
DILUPBiCGStab:  Solving for T, Initial residual = 0.343059, Final residual = 0.0110048, No Iterations 1
DICPCG:  Solving for p_rgh, Initial residual = 1.51226e-12, Final residual = 1.51226e-12, No Iterations 0
time step continuity errors : sum local = 6.25981e-13, global = -2.25878e-29, cumulative = 1.3117e-28
DILUPBiCGStab:  Solving for epsilon, Initial residual = 0.0409066, Final residual = 0.000605328, No Iterations 1
DILUPBiCGStab:  Solving for k, Initial residual = 0.0285298, Final residual = 0.00042655, No Iterations 1
ExecutionTime = 14.37 s  ClockTime = 15 s

Time = 44

DILUPBiCGStab:  Solving for Ux, Initial residual = 0.0042921, Final residual = 7.37805e-05, No Iterations 1
DILUPBiCGStab:  Solving for Uy, Initial residual = 0.00834714, Final residual = 0.000145836, No Iterations 1
DILUPBiCGStab:  Solving for Uz, Initial residual = 0.0131192, Final residual = 0.000224554, No Iterations 1
DILUPBiCGStab:  Solving for T, Initial residual = 0.334712, Final residual = 0.0107781, No Iterations 1
DICPCG:  Solving for p_rgh, Initial residual = 1.38312e-12, Final residual = 1.38312e-12, No Iterations 0
time step continuity errors : sum local = 6.41237e-13, global = 1.84028e-30, cumulative = 1.3301e-28
DILUPBiCGStab:  Solving for epsilon, Initial residual = 0.0403848, Final residual = 0.000598221, No Iterations 1
DILUPBiCGStab:  Solving for k, Initial residual = 0.0281769, Final residual = 0.000421558, No Iterations 1
ExecutionTime = 14.66 s  ClockTime = 15 s

Time = 45

DILUPBiCGStab:  Solving for Ux, Initial residual = 0.00393565, Final residual = 6.74924e-05, No Iterations 1
DILUPBiCGStab:  Solving for Uy, Initial residual = 0.00765142, Final residual = 0.000132734, No Iterations 1
DILUPBiCGStab:  Solving for Uz, Initial residual = 0.0128704, Final residual = 0.000221269, No Iterations 1
DILUPBiCGStab:  Solving for T, Initial residual = 0.339552, Final residual = 0.0109733, No Iterations 1
DICPCG:  Solving for p_rgh, Initial residual = 1.27052e-12, Final residual = 1.27052e-12, No Iterations 0
time step continuity errors : sum local = 6.57256e-13, global = 1.15493e-29, cumulative = 1.44559e-28
DILUPBiCGStab:  Solving for epsilon, Initial residual = 0.0398832, Final residual = 0.00059135, No Iterations 1
DILUPBiCGStab:  Solving for k, Initial residual = 0.027839, Final residual = 0.000416767, No Iterations 1
ExecutionTime = 14.95 s  ClockTime = 15 s

Time = 46

DILUPBiCGStab:  Solving for Ux, Initial residual = 0.00357886, Final residual = 6.1786e-05, No Iterations 1
DILUPBiCGStab:  Solving for Uy, Initial residual = 0.00704764, Final residual = 0.000122404, No Iterations 1
DILUPBiCGStab:  Solving for Uz, Initial residual = 0.012636, Final residual = 0.0002171, No Iterations 1
DILUPBiCGStab:  Solving for T, Initial residual = 0.338111, Final residual = 0.0108967, No Iterations 1
DICPCG:  Solving for p_rgh, Initial residual = 1.17774e-12, Final residual = 1.17774e-12, No Iterations 0
time step continuity errors : sum local = 6.74799e-13, global = 3.84936e-29, cumulative = 1.83053e-28
DILUPBiCGStab:  Solving for epsilon, Initial residual = 0.0394006, Final residual = 0.000584705, No Iterations 1
DILUPBiCGStab:  Solving for k, Initial residual = 0.027515, Final residual = 0.000412164, No Iterations 1
ExecutionTime = 15.23 s  ClockTime = 16 s

Time = 47

DILUPBiCGStab:  Solving for Ux, Initial residual = 0.00346849, Final residual = 5.92331e-05, No Iterations 1
DILUPBiCGStab:  Solving for Uy, Initial residual = 0.00724215, Final residual = 0.000128292, No Iterations 1
DILUPBiCGStab:  Solving for Uz, Initial residual = 0.0131431, Final residual = 0.000223453, No Iterations 1
DILUPBiCGStab:  Solving for T, Initial residual = 0.338719, Final residual = 0.0108188, No Iterations 1
DICPCG:  Solving for p_rgh, Initial residual = 1.10012e-12, Final residual = 1.10012e-12, No Iterations 0
time step continuity errors : sum local = 6.94431e-13, global = 4.36352e-29, cumulative = 2.26688e-28
DILUPBiCGStab:  Solving for epsilon, Initial residual = 0.0389361, Final residual = 0.000578279, No Iterations 1
DILUPBiCGStab:  Solving for k, Initial residual = 0.0272039, Final residual = 0.000407735, No Iterations 1
ExecutionTime = 15.52 s  ClockTime = 16 s

Time = 48

DILUPBiCGStab:  Solving for Ux, Initial residual = 0.00326057, Final residual = 5.54932e-05, No Iterations 1
DILUPBiCGStab:  Solving for Uy, Initial residual = 0.0073198, Final residual = 0.000131545, No Iterations 1
DILUPBiCGStab:  Solving for Uz, Initial residual = 0.0134411, Final residual = 0.000225771, No Iterations 1
DILUPBiCGStab:  Solving for T, Initial residual = 0.34235, Final residual = 0.0112298, No Iterations 1
DICPCG:  Solving for p_rgh, Initial residual = 1.034e-12, Final residual = 1.034e-12, No Iterations 0
time step continuity errors : sum local = 7.16557e-13, global = -6.28963e-29, cumulative = 1.63792e-28
DILUPBiCGStab:  Solving for epsilon, Initial residual = 0.0384889, Final residual = 0.000572066, No Iterations 1
DILUPBiCGStab:  Solving for k, Initial residual = 0.0269049, Final residual = 0.000403469, No Iterations 1
ExecutionTime = 15.81 s  ClockTime = 16 s

Time = 49

DILUPBiCGStab:  Solving for Ux, Initial residual = 0.0029028, Final residual = 4.99408e-05, No Iterations 1
DILUPBiCGStab:  Solving for Uy, Initial residual = 0.00663621, Final residual = 0.00011844, No Iterations 1
DILUPBiCGStab:  Solving for Uz, Initial residual = 0.0128044, Final residual = 0.000216723, No Iterations 1
DILUPBiCGStab:  Solving for T, Initial residual = 0.341199, Final residual = 0.0109101, No Iterations 1
DICPCG:  Solving for p_rgh, Initial residual = 9.72258e-13, Final residual = 9.72258e-13, No Iterations 0
time step continuity errors : sum local = 7.36309e-13, global = 1.01596e-29, cumulative = 1.73951e-28
DILUPBiCGStab:  Solving for epsilon, Initial residual = 0.0380579, Final residual = 0.000566052, No Iterations 1
DILUPBiCGStab:  Solving for k, Initial residual = 0.0266172, Final residual = 0.000399359, No Iterations 1
ExecutionTime = 16.13 s  ClockTime = 17 s

Time = 50

DILUPBiCGStab:  Solving for Ux, Initial residual = 0.00273441, Final residual = 4.69238e-05, No Iterations 1
DILUPBiCGStab:  Solving for Uy, Initial residual = 0.00585798, Final residual = 0.000102587, No Iterations 1
DILUPBiCGStab:  Solving for Uz, Initial residual = 0.0125247, Final residual = 0.000214109, No Iterations 1
DILUPBiCGStab:  Solving for T, Initial residual = 0.338353, Final residual = 0.0111014, No Iterations 1
DICPCG:  Solving for p_rgh, Initial residual = 9.14221e-13, Final residual = 9.14221e-13, No Iterations 0
time step continuity errors : sum local = 7.5022e-13, global = -7.53547e-29, cumulative = 9.85967e-29
DILUPBiCGStab:  Solving for epsilon, Initial residual = 0.0376416, Final residual = 0.000560221, No Iterations 1
DILUPBiCGStab:  Solving for k, Initial residual = 0.0263404, Final residual = 0.000395398, No Iterations 1
ExecutionTime = 16.43 s  ClockTime = 17 s

Time = 51

DILUPBiCGStab:  Solving for Ux, Initial residual = 0.00254733, Final residual = 4.38368e-05, No Iterations 1
DILUPBiCGStab:  Solving for Uy, Initial residual = 0.00542679, Final residual = 9.44102e-05, No Iterations 1
DILUPBiCGStab:  Solving for Uz, Initial residual = 0.0122502, Final residual = 0.000209472, No Iterations 1
DILUPBiCGStab:  Solving for T, Initial residual = 0.350182, Final residual = 0.0111215, No Iterations 1
DICPCG:  Solving for p_rgh, Initial residual = 8.72383e-13, Final residual = 8.72383e-13, No Iterations 0
time step continuity errors : sum local = 7.69341e-13, global = -1.00838e-28, cumulative = -2.24104e-30
DILUPBiCGStab:  Solving for epsilon, Initial residual = 0.0372396, Final residual = 0.000554568, No Iterations 1
DILUPBiCGStab:  Solving for k, Initial residual = 0.0260739, Final residual = 0.000391578, No Iterations 1
ExecutionTime = 16.73 s  ClockTime = 17 s

Time = 52

DILUPBiCGStab:  Solving for Ux, Initial residual = 0.00233015, Final residual = 4.01635e-05, No Iterations 1
DILUPBiCGStab:  Solving for Uy, Initial residual = 0.00510121, Final residual = 8.87237e-05, No Iterations 1
DILUPBiCGStab:  Solving for Uz, Initial residual = 0.0119904, Final residual = 0.000202529, No Iterations 1
DILUPBiCGStab:  Solving for T, Initial residual = 0.338502, Final residual = 0.0110393, No Iterations 1
DICPCG:  Solving for p_rgh, Initial residual = 8.3372e-13, Final residual = 8.3372e-13, No Iterations 0
time step continuity errors : sum local = 7.8803e-13, global = -1.05091e-28, cumulative = -1.07332e-28
DILUPBiCGStab:  Solving for epsilon, Initial residual = 0.0368517, Final residual = 0.000549094, No Iterations 1
DILUPBiCGStab:  Solving for k, Initial residual = 0.0258169, Final residual = 0.000387889, No Iterations 1
ExecutionTime = 17.08 s  ClockTime = 18 s

Time = 53

DILUPBiCGStab:  Solving for Ux, Initial residual = 0.00222149, Final residual = 3.81509e-05, No Iterations 1
DILUPBiCGStab:  Solving for Uy, Initial residual = 0.00475074, Final residual = 8.10747e-05, No Iterations 1
DILUPBiCGStab:  Solving for Uz, Initial residual = 0.012232, Final residual = 0.000207843, No Iterations 1
DILUPBiCGStab:  Solving for T, Initial residual = 0.336377, Final residual = 0.0109261, No Iterations 1
DICPCG:  Solving for p_rgh, Initial residual = 8.02456e-13, Final residual = 8.02456e-13, No Iterations 0
time step continuity errors : sum local = 8.061e-13, global = 5.58429e-30, cumulative = -1.01748e-28
DILUPBiCGStab:  Solving for epsilon, Initial residual = 0.0364765, Final residual = 0.000543785, No Iterations 1
DILUPBiCGStab:  Solving for k, Initial residual = 0.0255691, Final residual = 0.000384327, No Iterations 1
ExecutionTime = 17.38 s  ClockTime = 18 s

Time = 54

DILUPBiCGStab:  Solving for Ux, Initial residual = 0.00206187, Final residual = 3.52935e-05, No Iterations 1
DILUPBiCGStab:  Solving for Uy, Initial residual = 0.00444614, Final residual = 7.63993e-05, No Iterations 1
DILUPBiCGStab:  Solving for Uz, Initial residual = 0.0119337, Final residual = 0.000202276, No Iterations 1
DILUPBiCGStab:  Solving for T, Initial residual = 0.335601, Final residual = 0.0106912, No Iterations 1
DICPCG:  Solving for p_rgh, Initial residual = 7.80544e-13, Final residual = 7.80544e-13, No Iterations 0
time step continuity errors : sum local = 8.23539e-13, global = 1.54212e-28, cumulative = 5.24644e-29
DILUPBiCGStab:  Solving for epsilon, Initial residual = 0.0361139, Final residual = 0.00053864, No Iterations 1
DILUPBiCGStab:  Solving for k, Initial residual = 0.0253299, Final residual = 0.000380885, No Iterations 1
ExecutionTime = 17.68 s  ClockTime = 18 s

Time = 55

DILUPBiCGStab:  Solving for Ux, Initial residual = 0.00194317, Final residual = 3.3114e-05, No Iterations 1
DILUPBiCGStab:  Solving for Uy, Initial residual = 0.00408521, Final residual = 7.01709e-05, No Iterations 1
DILUPBiCGStab:  Solving for Uz, Initial residual = 0.0115536, Final residual = 0.000197257, No Iterations 1
DILUPBiCGStab:  Solving for T, Initial residual = 0.337681, Final residual = 0.0107041, No Iterations 1
DICPCG:  Solving for p_rgh, Initial residual = 7.60623e-13, Final residual = 7.60623e-13, No Iterations 0
time step continuity errors : sum local = 8.38933e-13, global = 1.05277e-29, cumulative = 6.29921e-29
DILUPBiCGStab:  Solving for epsilon, Initial residual = 0.0357631, Final residual = 0.000533648, No Iterations 1
DILUPBiCGStab:  Solving for k, Initial residual = 0.0250989, Final residual = 0.000377558, No Iterations 1
ExecutionTime = 17.97 s  ClockTime = 19 s

Time = 56

DILUPBiCGStab:  Solving for Ux, Initial residual = 0.00190535, Final residual = 3.27387e-05, No Iterations 1
DILUPBiCGStab:  Solving for Uy, Initial residual = 0.00408576, Final residual = 6.91e-05, No Iterations 1
DILUPBiCGStab:  Solving for Uz, Initial residual = 0.0120422, Final residual = 0.000204705, No Iterations 1
DILUPBiCGStab:  Solving for T, Initial residual = 0.335988, Final residual = 0.0109744, No Iterations 1
DICPCG:  Solving for p_rgh, Initial residual = 7.46376e-13, Final residual = 7.46376e-13, No Iterations 0
time step continuity errors : sum local = 8.56641e-13, global = -6.18524e-29, cumulative = 1.13968e-30
DILUPBiCGStab:  Solving for epsilon, Initial residual = 0.0354233, Final residual = 0.000528801, No Iterations 1
DILUPBiCGStab:  Solving for k, Initial residual = 0.0248756, Final residual = 0.000374339, No Iterations 1
ExecutionTime = 18.26 s  ClockTime = 19 s

Time = 57

DILUPBiCGStab:  Solving for Ux, Initial residual = 0.0017802, Final residual = 3.06022e-05, No Iterations 1
DILUPBiCGStab:  Solving for Uy, Initial residual = 0.0037052, Final residual = 6.31783e-05, No Iterations 1
DILUPBiCGStab:  Solving for Uz, Initial residual = 0.0116558, Final residual = 0.000198978, No Iterations 1
DILUPBiCGStab:  Solving for T, Initial residual = 0.335982, Final residual = 0.0108712, No Iterations 1
DICPCG:  Solving for p_rgh, Initial residual = 7.33243e-13, Final residual = 7.33243e-13, No Iterations 0
time step continuity errors : sum local = 8.71858e-13, global = -8.71277e-30, cumulative = -7.57309e-30
DILUPBiCGStab:  Solving for epsilon, Initial residual = 0.035094, Final residual = 0.000524092, No Iterations 1
DILUPBiCGStab:  Solving for k, Initial residual = 0.0246596, Final residual = 0.000371222, No Iterations 1
ExecutionTime = 18.56 s  ClockTime = 19 s

Time = 58

DILUPBiCGStab:  Solving for Ux, Initial residual = 0.0016768, Final residual = 2.88202e-05, No Iterations 1
DILUPBiCGStab:  Solving for Uy, Initial residual = 0.00355724, Final residual = 6.06962e-05, No Iterations 1
DILUPBiCGStab:  Solving for Uz, Initial residual = 0.0113655, Final residual = 0.000192198, No Iterations 1
DILUPBiCGStab:  Solving for T, Initial residual = 0.33335, Final residual = 0.0110502, No Iterations 1
DICPCG:  Solving for p_rgh, Initial residual = 7.28364e-13, Final residual = 7.28364e-13, No Iterations 0
time step continuity errors : sum local = 8.88354e-13, global = 9.34386e-29, cumulative = 8.58655e-29
DILUPBiCGStab:  Solving for epsilon, Initial residual = 0.0347748, Final residual = 0.000519514, No Iterations 1
DILUPBiCGStab:  Solving for k, Initial residual = 0.0244506, Final residual = 0.000368205, No Iterations 1
ExecutionTime = 18.85 s  ClockTime = 20 s

Time = 59

DILUPBiCGStab:  Solving for Ux, Initial residual = 0.0016273, Final residual = 2.81927e-05, No Iterations 1
DILUPBiCGStab:  Solving for Uy, Initial residual = 0.00348807, Final residual = 6.01464e-05, No Iterations 1
DILUPBiCGStab:  Solving for Uz, Initial residual = 0.0113903, Final residual = 0.000192311, No Iterations 1
DILUPBiCGStab:  Solving for T, Initial residual = 0.341283, Final residual = 0.0109901, No Iterations 1
DICPCG:  Solving for p_rgh, Initial residual = 7.2264e-13, Final residual = 7.2264e-13, No Iterations 0
time step continuity errors : sum local = 9.07061e-13, global = -5.96377e-29, cumulative = 2.62278e-29
DILUPBiCGStab:  Solving for epsilon, Initial residual = 0.0344652, Final residual = 0.000515066, No Iterations 1
DILUPBiCGStab:  Solving for k, Initial residual = 0.024248, Final residual = 0.00036528, No Iterations 1
ExecutionTime = 19.14 s  ClockTime = 20 s

Time = 60

DILUPBiCGStab:  Solving for Ux, Initial residual = 0.00153113, Final residual = 2.63663e-05, No Iterations 1
DILUPBiCGStab:  Solving for Uy, Initial residual = 0.00332339, Final residual = 5.72466e-05, No Iterations 1
DILUPBiCGStab:  Solving for Uz, Initial residual = 0.0111152, Final residual = 0.000189101, No Iterations 1
DILUPBiCGStab:  Solving for T, Initial residual = 0.340584, Final residual = 0.0109095, No Iterations 1
DICPCG:  Solving for p_rgh, Initial residual = 7.18084e-13, Final residual = 7.18084e-13, No Iterations 0
time step continuity errors : sum local = 9.20245e-13, global = -1.62071e-29, cumulative = 1.00206e-29
DILUPBiCGStab:  Solving for epsilon, Initial residual = 0.0341647, Final residual = 0.000510738, No Iterations 1
DILUPBiCGStab:  Solving for k, Initial residual = 0.0240518, Final residual = 0.000362445, No Iterations 1
ExecutionTime = 19.43 s  ClockTime = 20 s

Time = 61

DILUPBiCGStab:  Solving for Ux, Initial residual = 0.00145957, Final residual = 2.49623e-05, No Iterations 1
DILUPBiCGStab:  Solving for Uy, Initial residual = 0.00327328, Final residual = 5.63989e-05, No Iterations 1
DILUPBiCGStab:  Solving for Uz, Initial residual = 0.0108167, Final residual = 0.000184213, No Iterations 1
DILUPBiCGStab:  Solving for T, Initial residual = 0.347995, Final residual = 0.011115, No Iterations 1
DICPCG:  Solving for p_rgh, Initial residual = 7.17904e-13, Final residual = 7.17904e-13, No Iterations 0
time step continuity errors : sum local = 9.38077e-13, global = 1.27899e-28, cumulative = 1.3792e-28
DILUPBiCGStab:  Solving for epsilon, Initial residual = 0.0338734, Final residual = 0.000506535, No Iterations 1
DILUPBiCGStab:  Solving for k, Initial residual = 0.0238616, Final residual = 0.000359696, No Iterations 1
ExecutionTime = 19.73 s  ClockTime = 20 s

Time = 62

DILUPBiCGStab:  Solving for Ux, Initial residual = 0.0014405, Final residual = 2.46048e-05, No Iterations 1
DILUPBiCGStab:  Solving for Uy, Initial residual = 0.00326746, Final residual = 5.55485e-05, No Iterations 1
DILUPBiCGStab:  Solving for Uz, Initial residual = 0.0108953, Final residual = 0.00018357, No Iterations 1
DILUPBiCGStab:  Solving for T, Initial residual = 0.339783, Final residual = 0.0109477, No Iterations 1
DICPCG:  Solving for p_rgh, Initial residual = 7.14164e-13, Final residual = 7.14164e-13, No Iterations 0
time step continuity errors : sum local = 9.47476e-13, global = 7.99601e-29, cumulative = 2.1788e-28
DILUPBiCGStab:  Solving for epsilon, Initial residual = 0.0335907, Final residual = 0.00050245, No Iterations 1
DILUPBiCGStab:  Solving for k, Initial residual = 0.0236772, Final residual = 0.00035703, No Iterations 1
ExecutionTime = 20.03 s  ClockTime = 21 s

Time = 63

DILUPBiCGStab:  Solving for Ux, Initial residual = 0.00137092, Final residual = 2.35278e-05, No Iterations 1
DILUPBiCGStab:  Solving for Uy, Initial residual = 0.00318024, Final residual = 5.50499e-05, No Iterations 1
DILUPBiCGStab:  Solving for Uz, Initial residual = 0.0105103, Final residual = 0.000177164, No Iterations 1
DILUPBiCGStab:  Solving for T, Initial residual = 0.344443, Final residual = 0.0108677, No Iterations 1
DICPCG:  Solving for p_rgh, Initial residual = 7.13103e-13, Final residual = 7.13103e-13, No Iterations 0
time step continuity errors : sum local = 9.60291e-13, global = 3.50097e-29, cumulative = 2.5289e-28
DILUPBiCGStab:  Solving for epsilon, Initial residual = 0.0333162, Final residual = 0.000498478, No Iterations 1
DILUPBiCGStab:  Solving for k, Initial residual = 0.0234981, Final residual = 0.000354442, No Iterations 1
ExecutionTime = 20.34 s  ClockTime = 21 s

Time = 64

DILUPBiCGStab:  Solving for Ux, Initial residual = 0.00130842, Final residual = 2.24615e-05, No Iterations 1
DILUPBiCGStab:  Solving for Uy, Initial residual = 0.00305358, Final residual = 5.28124e-05, No Iterations 1
DILUPBiCGStab:  Solving for Uz, Initial residual = 0.00988813, Final residual = 0.000168495, No Iterations 1
DILUPBiCGStab:  Solving for T, Initial residual = 0.347012, Final residual = 0.0109054, No Iterations 1
DICPCG:  Solving for p_rgh, Initial residual = 7.13618e-13, Final residual = 7.13618e-13, No Iterations 0
time step continuity errors : sum local = 9.74294e-13, global = -7.8564e-29, cumulative = 1.74326e-28
DILUPBiCGStab:  Solving for epsilon, Initial residual = 0.0330495, Final residual = 0.000494615, No Iterations 1
DILUPBiCGStab:  Solving for k, Initial residual = 0.0233244, Final residual = 0.00035193, No Iterations 1
ExecutionTime = 20.64 s  ClockTime = 21 s

Time = 65

DILUPBiCGStab:  Solving for Ux, Initial residual = 0.00127192, Final residual = 2.17225e-05, No Iterations 1
DILUPBiCGStab:  Solving for Uy, Initial residual = 0.00297048, Final residual = 5.11926e-05, No Iterations 1
DILUPBiCGStab:  Solving for Uz, Initial residual = 0.00951644, Final residual = 0.00016293, No Iterations 1
DILUPBiCGStab:  Solving for T, Initial residual = 0.339576, Final residual = 0.0109976, No Iterations 1
DICPCG:  Solving for p_rgh, Initial residual = 7.13471e-13, Final residual = 7.13471e-13, No Iterations 0
time step continuity errors : sum local = 9.81832e-13, global = -7.49755e-29, cumulative = 9.93503e-29
DILUPBiCGStab:  Solving for epsilon, Initial residual = 0.0327902, Final residual = 0.000490854, No Iterations 1
DILUPBiCGStab:  Solving for k, Initial residual = 0.0231557, Final residual = 0.000349489, No Iterations 1
ExecutionTime = 20.93 s  ClockTime = 22 s

Time = 66

DILUPBiCGStab:  Solving for Ux, Initial residual = 0.00122678, Final residual = 2.09354e-05, No Iterations 1
DILUPBiCGStab:  Solving for Uy, Initial residual = 0.00290182, Final residual = 4.97931e-05, No Iterations 1
DILUPBiCGStab:  Solving for Uz, Initial residual = 0.00927304, Final residual = 0.000159572, No Iterations 1
DILUPBiCGStab:  Solving for T, Initial residual = 0.347386, Final residual = 0.0113057, No Iterations 1
DICPCG:  Solving for p_rgh, Initial residual = 7.17676e-13, Final residual = 7.17676e-13, No Iterations 0
time step continuity errors : sum local = 9.95253e-13, global = -3.40229e-29, cumulative = 6.53273e-29
DILUPBiCGStab:  Solving for epsilon, Initial residual = 0.0325378, Final residual = 0.00048719, No Iterations 1
DILUPBiCGStab:  Solving for k, Initial residual = 0.0229918, Final residual = 0.000347118, No Iterations 1
ExecutionTime = 21.23 s  ClockTime = 22 s

Time = 67

DILUPBiCGStab:  Solving for Ux, Initial residual = 0.00124415, Final residual = 2.13202e-05, No Iterations 1
DILUPBiCGStab:  Solving for Uy, Initial residual = 0.00291643, Final residual = 4.956e-05, No Iterations 1
DILUPBiCGStab:  Solving for Uz, Initial residual = 0.00968108, Final residual = 0.000165351, No Iterations 1
DILUPBiCGStab:  Solving for T, Initial residual = 0.341435, Final residual = 0.0109081, No Iterations 1
DICPCG:  Solving for p_rgh, Initial residual = 7.19688e-13, Final residual = 7.19688e-13, No Iterations 0
time step continuity errors : sum local = 1.00842e-12, global = -3.01298e-29, cumulative = 3.51975e-29
DILUPBiCGStab:  Solving for epsilon, Initial residual = 0.0322922, Final residual = 0.000483622, No Iterations 1
DILUPBiCGStab:  Solving for k, Initial residual = 0.0228323, Final residual = 0.000344812, No Iterations 1
ExecutionTime = 21.52 s  ClockTime = 22 s

Time = 68

DILUPBiCGStab:  Solving for Ux, Initial residual = 0.001246, Final residual = 2.13635e-05, No Iterations 1
DILUPBiCGStab:  Solving for Uy, Initial residual = 0.00308856, Final residual = 5.30189e-05, No Iterations 1
DILUPBiCGStab:  Solving for Uz, Initial residual = 0.0100864, Final residual = 0.000168432, No Iterations 1
DILUPBiCGStab:  Solving for T, Initial residual = 0.344902, Final residual = 0.0110413, No Iterations 1
DICPCG:  Solving for p_rgh, Initial residual = 7.26253e-13, Final residual = 7.26253e-13, No Iterations 0
time step continuity errors : sum local = 1.02301e-12, global = -1.49888e-29, cumulative = 2.02088e-29
DILUPBiCGStab:  Solving for epsilon, Initial residual = 0.0320529, Final residual = 0.000480142, No Iterations 1
DILUPBiCGStab:  Solving for k, Initial residual = 0.0226773, Final residual = 0.000342569, No Iterations 1
ExecutionTime = 21.81 s  ClockTime = 23 s

Time = 69

DILUPBiCGStab:  Solving for Ux, Initial residual = 0.00118424, Final residual = 2.03275e-05, No Iterations 1
DILUPBiCGStab:  Solving for Uy, Initial residual = 0.00290015, Final residual = 5.00204e-05, No Iterations 1
DILUPBiCGStab:  Solving for Uz, Initial residual = 0.00949981, Final residual = 0.00016146, No Iterations 1
DILUPBiCGStab:  Solving for T, Initial residual = 0.341298, Final residual = 0.0108923, No Iterations 1
DICPCG:  Solving for p_rgh, Initial residual = 7.29559e-13, Final residual = 7.29559e-13, No Iterations 0
time step continuity errors : sum local = 1.03578e-12, global = -3.24333e-29, cumulative = -1.22245e-29
DILUPBiCGStab:  Solving for epsilon, Initial residual = 0.0318199, Final residual = 0.000476752, No Iterations 1
DILUPBiCGStab:  Solving for k, Initial residual = 0.0225265, Final residual = 0.000340389, No Iterations 1
ExecutionTime = 22.11 s  ClockTime = 23 s

Time = 70

DILUPBiCGStab:  Solving for Ux, Initial residual = 0.00114033, Final residual = 1.96269e-05, No Iterations 1
DILUPBiCGStab:  Solving for Uy, Initial residual = 0.00271369, Final residual = 4.69082e-05, No Iterations 1
DILUPBiCGStab:  Solving for Uz, Initial residual = 0.00917151, Final residual = 0.000154964, No Iterations 1
DILUPBiCGStab:  Solving for T, Initial residual = 0.342782, Final residual = 0.0110176, No Iterations 1
DICPCG:  Solving for p_rgh, Initial residual = 7.32006e-13, Final residual = 7.32006e-13, No Iterations 0
time step continuity errors : sum local = 1.0453e-12, global = -5.45897e-29, cumulative = -6.68142e-29
DILUPBiCGStab:  Solving for epsilon, Initial residual = 0.0315931, Final residual = 0.000473449, No Iterations 1
DILUPBiCGStab:  Solving for k, Initial residual = 0.0223798, Final residual = 0.000338267, No Iterations 1
ExecutionTime = 22.4 s  ClockTime = 23 s

Time = 71

DILUPBiCGStab:  Solving for Ux, Initial residual = 0.00110922, Final residual = 1.8974e-05, No Iterations 1
DILUPBiCGStab:  Solving for Uy, Initial residual = 0.00261674, Final residual = 4.49761e-05, No Iterations 1
DILUPBiCGStab:  Solving for Uz, Initial residual = 0.00865938, Final residual = 0.000146373, No Iterations 1
DILUPBiCGStab:  Solving for T, Initial residual = 0.337079, Final residual = 0.0108603, No Iterations 1
DICPCG:  Solving for p_rgh, Initial residual = 7.32279e-13, Final residual = 7.32279e-13, No Iterations 0
time step continuity errors : sum local = 1.0549e-12, global = -1.08259e-28, cumulative = -1.75073e-28
DILUPBiCGStab:  Solving for epsilon, Initial residual = 0.031372, Final residual = 0.000470228, No Iterations 1
DILUPBiCGStab:  Solving for k, Initial residual = 0.022237, Final residual = 0.000336202, No Iterations 1
ExecutionTime = 22.69 s  ClockTime = 24 s

Time = 72

DILUPBiCGStab:  Solving for Ux, Initial residual = 0.00109996, Final residual = 1.88239e-05, No Iterations 1
DILUPBiCGStab:  Solving for Uy, Initial residual = 0.00253285, Final residual = 4.3358e-05, No Iterations 1
DILUPBiCGStab:  Solving for Uz, Initial residual = 0.00809877, Final residual = 0.000137109, No Iterations 1
DILUPBiCGStab:  Solving for T, Initial residual = 0.335801, Final residual = 0.0107494, No Iterations 1
DICPCG:  Solving for p_rgh, Initial residual = 7.367e-13, Final residual = 7.367e-13, No Iterations 0
time step continuity errors : sum local = 1.06299e-12, global = -3.49082e-29, cumulative = -2.09982e-28
DILUPBiCGStab:  Solving for epsilon, Initial residual = 0.0311564, Final residual = 0.000467085, No Iterations 1
DILUPBiCGStab:  Solving for k, Initial residual = 0.0220978, Final residual = 0.000334191, No Iterations 1
ExecutionTime = 22.99 s  ClockTime = 24 s

Time = 73

DILUPBiCGStab:  Solving for Ux, Initial residual = 0.00111708, Final residual = 1.90565e-05, No Iterations 1
DILUPBiCGStab:  Solving for Uy, Initial residual = 0.00263287, Final residual = 4.57092e-05, No Iterations 1
DILUPBiCGStab:  Solving for Uz, Initial residual = 0.00780337, Final residual = 0.000130919, No Iterations 1
DILUPBiCGStab:  Solving for T, Initial residual = 0.341391, Final residual = 0.0110396, No Iterations 1
DICPCG:  Solving for p_rgh, Initial residual = 7.43128e-13, Final residual = 7.43128e-13, No Iterations 0
time step continuity errors : sum local = 1.07775e-12, global = 3.48257e-29, cumulative = -1.75156e-28
DILUPBiCGStab:  Solving for epsilon, Initial residual = 0.0309461, Final residual = 0.000464016, No Iterations 1
DILUPBiCGStab:  Solving for k, Initial residual = 0.0219623, Final residual = 0.000332233, No Iterations 1
ExecutionTime = 23.28 s  ClockTime = 24 s

Time = 74

DILUPBiCGStab:  Solving for Ux, Initial residual = 0.00108743, Final residual = 1.85463e-05, No Iterations 1
DILUPBiCGStab:  Solving for Uy, Initial residual = 0.00251048, Final residual = 4.37238e-05, No Iterations 1
DILUPBiCGStab:  Solving for Uz, Initial residual = 0.00720517, Final residual = 0.000121848, No Iterations 1
DILUPBiCGStab:  Solving for T, Initial residual = 0.334117, Final residual = 0.0108222, No Iterations 1
DICPCG:  Solving for p_rgh, Initial residual = 7.50932e-13, Final residual = 7.50932e-13, No Iterations 0
time step continuity errors : sum local = 1.09183e-12, global = -1.51347e-30, cumulative = -1.76669e-28
DILUPBiCGStab:  Solving for epsilon, Initial residual = 0.030741, Final residual = 0.000461023, No Iterations 1
DILUPBiCGStab:  Solving for k, Initial residual = 0.0218302, Final residual = 0.000330325, No Iterations 1
ExecutionTime = 23.57 s  ClockTime = 24 s

Time = 75

DILUPBiCGStab:  Solving for Ux, Initial residual = 0.00106317, Final residual = 1.82019e-05, No Iterations 1
DILUPBiCGStab:  Solving for Uy, Initial residual = 0.00243445, Final residual = 4.21182e-05, No Iterations 1
DILUPBiCGStab:  Solving for Uz, Initial residual = 0.00658907, Final residual = 0.000112061, No Iterations 1
DILUPBiCGStab:  Solving for T, Initial residual = 0.335643, Final residual = 0.0106437, No Iterations 1
DICPCG:  Solving for p_rgh, Initial residual = 7.56878e-13, Final residual = 7.56878e-13, No Iterations 0
time step continuity errors : sum local = 1.10246e-12, global = 1.50383e-28, cumulative = -2.62868e-29
DILUPBiCGStab:  Solving for epsilon, Initial residual = 0.0305408, Final residual = 0.000458101, No Iterations 1
DILUPBiCGStab:  Solving for k, Initial residual = 0.0217015, Final residual = 0.000328467, No Iterations 1
ExecutionTime = 23.86 s  ClockTime = 25 s

Time = 76

DILUPBiCGStab:  Solving for Ux, Initial residual = 0.00106319, Final residual = 1.81201e-05, No Iterations 1
DILUPBiCGStab:  Solving for Uy, Initial residual = 0.00238732, Final residual = 4.05448e-05, No Iterations 1
DILUPBiCGStab:  Solving for Uz, Initial residual = 0.00641435, Final residual = 0.00010915, No Iterations 1
DILUPBiCGStab:  Solving for T, Initial residual = 0.325411, Final residual = 0.0106261, No Iterations 1
DICPCG:  Solving for p_rgh, Initial residual = 7.5554e-13, Final residual = 7.5554e-13, No Iterations 0
time step continuity errors : sum local = 1.11046e-12, global = 3.61266e-29, cumulative = 9.83976e-30
DILUPBiCGStab:  Solving for epsilon, Initial residual = 0.0303454, Final residual = 0.000455247, No Iterations 1
DILUPBiCGStab:  Solving for k, Initial residual = 0.0215761, Final residual = 0.000326657, No Iterations 1
ExecutionTime = 24.16 s  ClockTime = 25 s

Time = 77

DILUPBiCGStab:  Solving for Ux, Initial residual = 0.00104407, Final residual = 1.78065e-05, No Iterations 1
DILUPBiCGStab:  Solving for Uy, Initial residual = 0.00226793, Final residual = 3.8709e-05, No Iterations 1
DILUPBiCGStab:  Solving for Uz, Initial residual = 0.00600861, Final residual = 0.000101741, No Iterations 1
DILUPBiCGStab:  Solving for T, Initial residual = 0.336617, Final residual = 0.010983, No Iterations 1
DICPCG:  Solving for p_rgh, Initial residual = 7.61751e-13, Final residual = 7.61751e-13, No Iterations 0
time step continuity errors : sum local = 1.1217e-12, global = 2.75851e-29, cumulative = 3.74249e-29
DILUPBiCGStab:  Solving for epsilon, Initial residual = 0.0301545, Final residual = 0.00045246, No Iterations 1
DILUPBiCGStab:  Solving for k, Initial residual = 0.0214536, Final residual = 0.00032489, No Iterations 1
ExecutionTime = 24.45 s  ClockTime = 25 s

Time = 78

DILUPBiCGStab:  Solving for Ux, Initial residual = 0.00102122, Final residual = 1.75235e-05, No Iterations 1
DILUPBiCGStab:  Solving for Uy, Initial residual = 0.00219376, Final residual = 3.73824e-05, No Iterations 1
DILUPBiCGStab:  Solving for Uz, Initial residual = 0.0057613, Final residual = 9.77035e-05, No Iterations 1
DILUPBiCGStab:  Solving for T, Initial residual = 0.335706, Final residual = 0.0108217, No Iterations 1
DICPCG:  Solving for p_rgh, Initial residual = 7.6684e-13, Final residual = 7.6684e-13, No Iterations 0
time step continuity errors : sum local = 1.13299e-12, global = -4.45792e-30, cumulative = 3.2967e-29
DILUPBiCGStab:  Solving for epsilon, Initial residual = 0.0299683, Final residual = 0.000449741, No Iterations 1
DILUPBiCGStab:  Solving for k, Initial residual = 0.021334, Final residual = 0.000323167, No Iterations 1
ExecutionTime = 24.74 s  ClockTime = 26 s

Time = 79

DILUPBiCGStab:  Solving for Ux, Initial residual = 0.00102072, Final residual = 1.74167e-05, No Iterations 1
DILUPBiCGStab:  Solving for Uy, Initial residual = 0.00215959, Final residual = 3.69477e-05, No Iterations 1
DILUPBiCGStab:  Solving for Uz, Initial residual = 0.00555548, Final residual = 9.38716e-05, No Iterations 1
DILUPBiCGStab:  Solving for T, Initial residual = 0.335818, Final residual = 0.0108935, No Iterations 1
DICPCG:  Solving for p_rgh, Initial residual = 7.7062e-13, Final residual = 7.7062e-13, No Iterations 0
time step continuity errors : sum local = 1.14474e-12, global = -3.06343e-29, cumulative = 2.33269e-30
DILUPBiCGStab:  Solving for epsilon, Initial residual = 0.0297866, Final residual = 0.000447088, No Iterations 1
DILUPBiCGStab:  Solving for k, Initial residual = 0.0212174, Final residual = 0.000321487, No Iterations 1
ExecutionTime = 25.03 s  ClockTime = 26 s

Time = 80

DILUPBiCGStab:  Solving for Ux, Initial residual = 0.00100781, Final residual = 1.72626e-05, No Iterations 1
DILUPBiCGStab:  Solving for Uy, Initial residual = 0.00212166, Final residual = 3.62967e-05, No Iterations 1
DILUPBiCGStab:  Solving for Uz, Initial residual = 0.0052511, Final residual = 8.88811e-05, No Iterations 1
DILUPBiCGStab:  Solving for T, Initial residual = 0.331724, Final residual = 0.010758, No Iterations 1
DICPCG:  Solving for p_rgh, Initial residual = 7.86306e-13, Final residual = 7.86306e-13, No Iterations 0
time step continuity errors : sum local = 1.16123e-12, global = 4.50995e-29, cumulative = 4.74322e-29
DILUPBiCGStab:  Solving for epsilon, Initial residual = 0.0296092, Final residual = 0.000444498, No Iterations 1
DILUPBiCGStab:  Solving for k, Initial residual = 0.0211037, Final residual = 0.000319849, No Iterations 1
ExecutionTime = 25.34 s  ClockTime = 26 s

Time = 81

DILUPBiCGStab:  Solving for Ux, Initial residual = 0.00103207, Final residual = 1.78012e-05, No Iterations 1
DILUPBiCGStab:  Solving for Uy, Initial residual = 0.00221681, Final residual = 3.89141e-05, No Iterations 1
DILUPBiCGStab:  Solving for Uz, Initial residual = 0.00523357, Final residual = 8.7463e-05, No Iterations 1
DILUPBiCGStab:  Solving for T, Initial residual = 0.341358, Final residual = 0.011082, No Iterations 1
DICPCG:  Solving for p_rgh, Initial residual = 7.89194e-13, Final residual = 7.89194e-13, No Iterations 0
time step continuity errors : sum local = 1.17337e-12, global = -1.02602e-28, cumulative = -5.51697e-29
DILUPBiCGStab:  Solving for epsilon, Initial residual = 0.0294361, Final residual = 0.000441971, No Iterations 1
DILUPBiCGStab:  Solving for k, Initial residual = 0.0209926, Final residual = 0.00031825, No Iterations 1
ExecutionTime = 25.64 s  ClockTime = 27 s

Time = 82

DILUPBiCGStab:  Solving for Ux, Initial residual = 0.00102965, Final residual = 1.76805e-05, No Iterations 1
DILUPBiCGStab:  Solving for Uy, Initial residual = 0.00216301, Final residual = 3.76781e-05, No Iterations 1
DILUPBiCGStab:  Solving for Uz, Initial residual = 0.00516908, Final residual = 8.6871e-05, No Iterations 1
DILUPBiCGStab:  Solving for T, Initial residual = 0.33719, Final residual = 0.0110101, No Iterations 1
DICPCG:  Solving for p_rgh, Initial residual = 7.9813e-13, Final residual = 7.9813e-13, No Iterations 0
time step continuity errors : sum local = 1.18338e-12, global = 6.40639e-29, cumulative = 8.89424e-30
DILUPBiCGStab:  Solving for epsilon, Initial residual = 0.0292669, Final residual = 0.000439501, No Iterations 1
DILUPBiCGStab:  Solving for k, Initial residual = 0.0208841, Final residual = 0.00031669, No Iterations 1
ExecutionTime = 25.94 s  ClockTime = 27 s

Time = 83

DILUPBiCGStab:  Solving for Ux, Initial residual = 0.00102265, Final residual = 1.75235e-05, No Iterations 1
DILUPBiCGStab:  Solving for Uy, Initial residual = 0.00216007, Final residual = 3.72751e-05, No Iterations 1
DILUPBiCGStab:  Solving for Uz, Initial residual = 0.004882, Final residual = 8.2131e-05, No Iterations 1
DILUPBiCGStab:  Solving for T, Initial residual = 0.338787, Final residual = 0.0107628, No Iterations 1
DICPCG:  Solving for p_rgh, Initial residual = 8.01887e-13, Final residual = 8.01887e-13, No Iterations 0
time step continuity errors : sum local = 1.19474e-12, global = -3.36232e-29, cumulative = -2.47289e-29
DILUPBiCGStab:  Solving for epsilon, Initial residual = 0.0291014, Final residual = 0.000437085, No Iterations 1
DILUPBiCGStab:  Solving for k, Initial residual = 0.0207781, Final residual = 0.000315166, No Iterations 1
ExecutionTime = 26.23 s  ClockTime = 27 s

Time = 84

DILUPBiCGStab:  Solving for Ux, Initial residual = 0.00101086, Final residual = 1.7321e-05, No Iterations 1
DILUPBiCGStab:  Solving for Uy, Initial residual = 0.00212924, Final residual = 3.70599e-05, No Iterations 1
DILUPBiCGStab:  Solving for Uz, Initial residual = 0.00458059, Final residual = 7.75879e-05, No Iterations 1
DILUPBiCGStab:  Solving for T, Initial residual = 0.33664, Final residual = 0.0108749, No Iterations 1
DICPCG:  Solving for p_rgh, Initial residual = 8.06205e-13, Final residual = 8.06205e-13, No Iterations 0
time step continuity errors : sum local = 1.20171e-12, global = 4.38494e-30, cumulative = -2.0344e-29
DILUPBiCGStab:  Solving for epsilon, Initial residual = 0.0289396, Final residual = 0.000434725, No Iterations 1
DILUPBiCGStab:  Solving for k, Initial residual = 0.0206746, Final residual = 0.000313679, No Iterations 1
ExecutionTime = 26.52 s  ClockTime = 27 s

Time = 85

DILUPBiCGStab:  Solving for Ux, Initial residual = 0.00101403, Final residual = 1.74228e-05, No Iterations 1
DILUPBiCGStab:  Solving for Uy, Initial residual = 0.00214241, Final residual = 3.7026e-05, No Iterations 1
DILUPBiCGStab:  Solving for Uz, Initial residual = 0.00440387, Final residual = 7.50681e-05, No Iterations 1
DILUPBiCGStab:  Solving for T, Initial residual = 0.338052, Final residual = 0.010941, No Iterations 1
DICPCG:  Solving for p_rgh, Initial residual = 8.12639e-13, Final residual = 8.12639e-13, No Iterations 0
time step continuity errors : sum local = 1.21274e-12, global = -2.89685e-29, cumulative = -4.93125e-29
DILUPBiCGStab:  Solving for epsilon, Initial residual = 0.0287814, Final residual = 0.000432418, No Iterations 1
DILUPBiCGStab:  Solving for k, Initial residual = 0.0205735, Final residual = 0.000312227, No Iterations 1
ExecutionTime = 26.82 s  ClockTime = 28 s

Time = 86

DILUPBiCGStab:  Solving for Ux, Initial residual = 0.00100199, Final residual = 1.71626e-05, No Iterations 1
DILUPBiCGStab:  Solving for Uy, Initial residual = 0.00214661, Final residual = 3.71971e-05, No Iterations 1
DILUPBiCGStab:  Solving for Uz, Initial residual = 0.00430624, Final residual = 7.33175e-05, No Iterations 1
DILUPBiCGStab:  Solving for T, Initial residual = 0.336088, Final residual = 0.0106977, No Iterations 1
DICPCG:  Solving for p_rgh, Initial residual = 8.12392e-13, Final residual = 8.12392e-13, No Iterations 0
[...]
DILUPBiCGStab:  Solving for Uy, Initial residual = 0.00422252, Final residual = 7.19654e-05, No Iterations 1
DILUPBiCGStab:  Solving for Uz, Initial residual = 0.00519563, Final residual = 8.27334e-05, No Iterations 1
DILUPBiCGStab:  Solving for T, Initial residual = 0.276981, Final residual = 0.00915172, No Iterations 1
DICPCG:  Solving for p_rgh, Initial residual = 2.79795e-10, Final residual = 2.79795e-10, No Iterations 0
time step continuity errors : sum local = 4.38966e-10, global = 3.02694e-25, cumulative = 7.01943e-25
DILUPBiCGStab:  Solving for epsilon, Initial residual = 0.0114893, Final residual = 0.000186332, No Iterations 1
bounding epsilon, min: 9.29912e-23 max: 1.622e-11 average: 9.75591e-13
DILUPBiCGStab:  Solving for k, Initial residual = 0.0108427, Final residual = 0.000171754, No Iterations 1
bounding k, min: 3.05921e-16 max: 8.41375e-08 average: 2.49484e-08
ExecutionTime = 306.41 s  ClockTime = 322 s

Time = 983

DILUPBiCGStab:  Solving for Ux, Initial residual = 0.00679576, Final residual = 0.000114213, No Iterations 1
DILUPBiCGStab:  Solving for Uy, Initial residual = 0.00422736, Final residual = 7.20631e-05, No Iterations 1
DILUPBiCGStab:  Solving for Uz, Initial residual = 0.00519384, Final residual = 8.1805e-05, No Iterations 1
DILUPBiCGStab:  Solving for T, Initial residual = 0.269532, Final residual = 0.00878185, No Iterations 1
DICPCG:  Solving for p_rgh, Initial residual = 2.81228e-10, Final residual = 2.81228e-10, No Iterations 0
time step continuity errors : sum local = 4.41352e-10, global = -2.08647e-25, cumulative = 4.93296e-25
DILUPBiCGStab:  Solving for epsilon, Initial residual = 0.0114612, Final residual = 0.000186095, No Iterations 1
bounding epsilon, min: 9.29912e-23 max: 1.58731e-11 average: 9.55105e-13
DILUPBiCGStab:  Solving for k, Initial residual = 0.0108238, Final residual = 0.000171451, No Iterations 1
bounding k, min: 3.0592e-16 max: 8.29519e-08 average: 2.45863e-08
ExecutionTime = 306.72 s  ClockTime = 323 s

Time = 984

DILUPBiCGStab:  Solving for Ux, Initial residual = 0.00676876, Final residual = 0.000113087, No Iterations 1
DILUPBiCGStab:  Solving for Uy, Initial residual = 0.00418348, Final residual = 7.13917e-05, No Iterations 1
DILUPBiCGStab:  Solving for Uz, Initial residual = 0.00514175, Final residual = 8.12498e-05, No Iterations 1
DILUPBiCGStab:  Solving for T, Initial residual = 0.274203, Final residual = 0.0088543, No Iterations 1
DICPCG:  Solving for p_rgh, Initial residual = 2.83145e-10, Final residual = 2.83145e-10, No Iterations 0
time step continuity errors : sum local = 4.44251e-10, global = -1.23899e-25, cumulative = 3.69397e-25
DILUPBiCGStab:  Solving for epsilon, Initial residual = 0.0114332, Final residual = 0.000185868, No Iterations 1
bounding epsilon, min: 9.29912e-23 max: 1.55335e-11 average: 9.35043e-13
DILUPBiCGStab:  Solving for k, Initial residual = 0.0108047, Final residual = 0.000171148, No Iterations 1
bounding k, min: 3.0592e-16 max: 8.17825e-08 average: 2.42293e-08
ExecutionTime = 307.01 s  ClockTime = 323 s

Time = 985

DILUPBiCGStab:  Solving for Ux, Initial residual = 0.00675532, Final residual = 0.000113305, No Iterations 1
DILUPBiCGStab:  Solving for Uy, Initial residual = 0.00416472, Final residual = 7.13486e-05, No Iterations 1
DILUPBiCGStab:  Solving for Uz, Initial residual = 0.00511967, Final residual = 8.10689e-05, No Iterations 1
DILUPBiCGStab:  Solving for T, Initial residual = 0.267129, Final residual = 0.00850162, No Iterations 1
DICPCG:  Solving for p_rgh, Initial residual = 2.8418e-10, Final residual = 2.8418e-10, No Iterations 0
time step continuity errors : sum local = 4.46169e-10, global = -4.18672e-26, cumulative = 3.2753e-25
DILUPBiCGStab:  Solving for epsilon, Initial residual = 0.0114053, Final residual = 0.000185652, No Iterations 1
bounding epsilon, min: 9.29912e-23 max: 1.52009e-11 average: 9.15397e-13
DILUPBiCGStab:  Solving for k, Initial residual = 0.0107856, Final residual = 0.000170843, No Iterations 1
bounding k, min: 3.0592e-16 max: 8.06292e-08 average: 2.38773e-08
ExecutionTime = 307.32 s  ClockTime = 323 s

Time = 986

DILUPBiCGStab:  Solving for Ux, Initial residual = 0.00675818, Final residual = 0.000113518, No Iterations 1
DILUPBiCGStab:  Solving for Uy, Initial residual = 0.00419639, Final residual = 7.17803e-05, No Iterations 1
DILUPBiCGStab:  Solving for Uz, Initial residual = 0.00516593, Final residual = 8.17241e-05, No Iterations 1
DILUPBiCGStab:  Solving for T, Initial residual = 0.269215, Final residual = 0.00865741, No Iterations 1
DICPCG:  Solving for p_rgh, Initial residual = 2.86124e-10, Final residual = 2.86124e-10, No Iterations 0
time step continuity errors : sum local = 4.49024e-10, global = -3.81607e-25, cumulative = -5.40767e-26
DILUPBiCGStab:  Solving for epsilon, Initial residual = 0.0113774, Final residual = 0.000185447, No Iterations 1
bounding epsilon, min: 9.29912e-23 max: 1.48754e-11 average: 8.96158e-13
DILUPBiCGStab:  Solving for k, Initial residual = 0.0107665, Final residual = 0.000170537, No Iterations 1
bounding k, min: 3.0592e-16 max: 7.94917e-08 average: 2.35302e-08
ExecutionTime = 307.64 s  ClockTime = 324 s

Time = 987

DILUPBiCGStab:  Solving for Ux, Initial residual = 0.00675074, Final residual = 0.000113243, No Iterations 1
DILUPBiCGStab:  Solving for Uy, Initial residual = 0.0041779, Final residual = 7.15138e-05, No Iterations 1
DILUPBiCGStab:  Solving for Uz, Initial residual = 0.00522024, Final residual = 8.23823e-05, No Iterations 1
DILUPBiCGStab:  Solving for T, Initial residual = 0.274777, Final residual = 0.00881787, No Iterations 1
DICPCG:  Solving for p_rgh, Initial residual = 2.87628e-10, Final residual = 2.87628e-10, No Iterations 0
time step continuity errors : sum local = 4.51634e-10, global = -2.57558e-25, cumulative = -3.11635e-25
DILUPBiCGStab:  Solving for epsilon, Initial residual = 0.0113496, Final residual = 0.000185255, No Iterations 1
bounding epsilon, min: 9.29912e-23 max: 1.45566e-11 average: 8.77318e-13
DILUPBiCGStab:  Solving for k, Initial residual = 0.0107473, Final residual = 0.000170231, No Iterations 1
bounding k, min: 3.0592e-16 max: 7.837e-08 average: 2.3188e-08
ExecutionTime = 307.95 s  ClockTime = 324 s

Time = 988

DILUPBiCGStab:  Solving for Ux, Initial residual = 0.00672891, Final residual = 0.000113052, No Iterations 1
DILUPBiCGStab:  Solving for Uy, Initial residual = 0.0041737, Final residual = 7.15609e-05, No Iterations 1
DILUPBiCGStab:  Solving for Uz, Initial residual = 0.00526438, Final residual = 8.41441e-05, No Iterations 1
DILUPBiCGStab:  Solving for T, Initial residual = 0.274328, Final residual = 0.00870631, No Iterations 1
DICPCG:  Solving for p_rgh, Initial residual = 2.89121e-10, Final residual = 2.89121e-10, No Iterations 0
time step continuity errors : sum local = 4.53749e-10, global = 2.39708e-25, cumulative = -7.19267e-26
DILUPBiCGStab:  Solving for epsilon, Initial residual = 0.0113219, Final residual = 0.000185075, No Iterations 1
bounding epsilon, min: 9.29912e-23 max: 1.42445e-11 average: 8.58869e-13
DILUPBiCGStab:  Solving for k, Initial residual = 0.0107281, Final residual = 0.000169924, No Iterations 1
bounding k, min: 3.0592e-16 max: 7.72636e-08 average: 2.28506e-08
ExecutionTime = 308.25 s  ClockTime = 324 s

Time = 989

DILUPBiCGStab:  Solving for Ux, Initial residual = 0.0067537, Final residual = 0.000112887, No Iterations 1
DILUPBiCGStab:  Solving for Uy, Initial residual = 0.00415468, Final residual = 7.15986e-05, No Iterations 1
DILUPBiCGStab:  Solving for Uz, Initial residual = 0.00516299, Final residual = 8.28104e-05, No Iterations 1
DILUPBiCGStab:  Solving for T, Initial residual = 0.269822, Final residual = 0.0087127, No Iterations 1
DICPCG:  Solving for p_rgh, Initial residual = 2.91089e-10, Final residual = 2.91089e-10, No Iterations 0
time step continuity errors : sum local = 4.56662e-10, global = -5.15818e-26, cumulative = -1.23509e-25
DILUPBiCGStab:  Solving for epsilon, Initial residual = 0.0112943, Final residual = 0.000184909, No Iterations 1
bounding epsilon, min: 9.29912e-23 max: 1.3939e-11 average: 8.40802e-13
DILUPBiCGStab:  Solving for k, Initial residual = 0.0107088, Final residual = 0.000169616, No Iterations 1
bounding k, min: 3.0592e-16 max: 7.61725e-08 average: 2.2518e-08
ExecutionTime = 308.55 s  ClockTime = 324 s

Time = 990

DILUPBiCGStab:  Solving for Ux, Initial residual = 0.00685922, Final residual = 0.000114537, No Iterations 1
DILUPBiCGStab:  Solving for Uy, Initial residual = 0.00416525, Final residual = 7.16743e-05, No Iterations 1
DILUPBiCGStab:  Solving for Uz, Initial residual = 0.00517935, Final residual = 8.26566e-05, No Iterations 1
DILUPBiCGStab:  Solving for T, Initial residual = 0.272131, Final residual = 0.00890299, No Iterations 1
DICPCG:  Solving for p_rgh, Initial residual = 2.92447e-10, Final residual = 2.92447e-10, No Iterations 0
time step continuity errors : sum local = 4.59022e-10, global = 6.76353e-26, cumulative = -5.58732e-26
DILUPBiCGStab:  Solving for epsilon, Initial residual = 0.0112667, Final residual = 0.000184758, No Iterations 1
bounding epsilon, min: 9.29912e-23 max: 1.36399e-11 average: 8.23111e-13
DILUPBiCGStab:  Solving for k, Initial residual = 0.0106895, Final residual = 0.000169308, No Iterations 1
bounding k, min: 3.05919e-16 max: 7.50964e-08 average: 2.219e-08
ExecutionTime = 308.85 s  ClockTime = 325 s

Time = 991

DILUPBiCGStab:  Solving for Ux, Initial residual = 0.00674432, Final residual = 0.000113069, No Iterations 1
DILUPBiCGStab:  Solving for Uy, Initial residual = 0.00417663, Final residual = 7.18929e-05, No Iterations 1
DILUPBiCGStab:  Solving for Uz, Initial residual = 0.0051553, Final residual = 8.1936e-05, No Iterations 1
DILUPBiCGStab:  Solving for T, Initial residual = 0.274419, Final residual = 0.00891311, No Iterations 1
DICPCG:  Solving for p_rgh, Initial residual = 2.93966e-10, Final residual = 2.93966e-10, No Iterations 0
time step continuity errors : sum local = 4.6115e-10, global = 9.09407e-26, cumulative = 3.50675e-26
DILUPBiCGStab:  Solving for epsilon, Initial residual = 0.0112393, Final residual = 0.000184621, No Iterations 1
bounding epsilon, min: 9.29912e-23 max: 1.33471e-11 average: 8.05786e-13
DILUPBiCGStab:  Solving for k, Initial residual = 0.0106701, Final residual = 0.000168998, No Iterations 1
bounding k, min: 3.0592e-16 max: 7.40351e-08 average: 2.18666e-08
ExecutionTime = 309.15 s  ClockTime = 325 s

Time = 992

DILUPBiCGStab:  Solving for Ux, Initial residual = 0.00675189, Final residual = 0.00011297, No Iterations 1
DILUPBiCGStab:  Solving for Uy, Initial residual = 0.0041781, Final residual = 7.181e-05, No Iterations 1
DILUPBiCGStab:  Solving for Uz, Initial residual = 0.00511565, Final residual = 8.11592e-05, No Iterations 1
DILUPBiCGStab:  Solving for T, Initial residual = 0.272585, Final residual = 0.00867629, No Iterations 1
DICPCG:  Solving for p_rgh, Initial residual = 2.95386e-10, Final residual = 2.95386e-10, No Iterations 0
time step continuity errors : sum local = 4.63553e-10, global = 2.21487e-26, cumulative = 5.72163e-26
DILUPBiCGStab:  Solving for epsilon, Initial residual = 0.0112119, Final residual = 0.0001845, No Iterations 1
bounding epsilon, min: 9.29912e-23 max: 1.30604e-11 average: 7.88821e-13
DILUPBiCGStab:  Solving for k, Initial residual = 0.0106507, Final residual = 0.000168688, No Iterations 1
bounding k, min: 3.0592e-16 max: 7.29884e-08 average: 2.15478e-08
ExecutionTime = 309.45 s  ClockTime = 325 s

Time = 993

DILUPBiCGStab:  Solving for Ux, Initial residual = 0.00670512, Final residual = 0.000113039, No Iterations 1
DILUPBiCGStab:  Solving for Uy, Initial residual = 0.00416681, Final residual = 7.1379e-05, No Iterations 1
DILUPBiCGStab:  Solving for Uz, Initial residual = 0.00509082, Final residual = 8.16935e-05, No Iterations 1
DILUPBiCGStab:  Solving for T, Initial residual = 0.267048, Final residual = 0.00860647, No Iterations 1
DICPCG:  Solving for p_rgh, Initial residual = 2.97165e-10, Final residual = 2.97165e-10, No Iterations 0
time step continuity errors : sum local = 4.66201e-10, global = 2.97125e-26, cumulative = 8.69288e-26
DILUPBiCGStab:  Solving for epsilon, Initial residual = 0.0111846, Final residual = 0.000184394, No Iterations 1
bounding epsilon, min: 9.29912e-23 max: 1.27797e-11 average: 7.72209e-13
DILUPBiCGStab:  Solving for k, Initial residual = 0.0106312, Final residual = 0.000168377, No Iterations 1
bounding k, min: 3.0592e-16 max: 7.19561e-08 average: 2.12335e-08
ExecutionTime = 309.75 s  ClockTime = 326 s

Time = 994

DILUPBiCGStab:  Solving for Ux, Initial residual = 0.00673717, Final residual = 0.000113204, No Iterations 1
DILUPBiCGStab:  Solving for Uy, Initial residual = 0.00413415, Final residual = 7.04122e-05, No Iterations 1
DILUPBiCGStab:  Solving for Uz, Initial residual = 0.00510211, Final residual = 8.08939e-05, No Iterations 1
DILUPBiCGStab:  Solving for T, Initial residual = 0.269805, Final residual = 0.00877269, No Iterations 1
DICPCG:  Solving for p_rgh, Initial residual = 2.98508e-10, Final residual = 2.98508e-10, No Iterations 0
time step continuity errors : sum local = 4.68244e-10, global = -1.9736e-25, cumulative = -1.10431e-25
DILUPBiCGStab:  Solving for epsilon, Initial residual = 0.0111574, Final residual = 0.000184305, No Iterations 1
bounding epsilon, min: 9.29912e-23 max: 1.25049e-11 average: 7.55941e-13
DILUPBiCGStab:  Solving for k, Initial residual = 0.0106116, Final residual = 0.000168065, No Iterations 1
bounding k, min: 3.0592e-16 max: 7.09381e-08 average: 2.09236e-08
ExecutionTime = 310.04 s  ClockTime = 326 s

Time = 995

DILUPBiCGStab:  Solving for Ux, Initial residual = 0.00674825, Final residual = 0.000113425, No Iterations 1
DILUPBiCGStab:  Solving for Uy, Initial residual = 0.00413559, Final residual = 7.10682e-05, No Iterations 1
DILUPBiCGStab:  Solving for Uz, Initial residual = 0.00504316, Final residual = 7.98926e-05, No Iterations 1
DILUPBiCGStab:  Solving for T, Initial residual = 0.26742, Final residual = 0.00869346, No Iterations 1
DICPCG:  Solving for p_rgh, Initial residual = 2.99788e-10, Final residual = 2.99788e-10, No Iterations 0
time step continuity errors : sum local = 4.70537e-10, global = 6.56892e-26, cumulative = -4.4742e-26
DILUPBiCGStab:  Solving for epsilon, Initial residual = 0.0111303, Final residual = 0.000184234, No Iterations 1
bounding epsilon, min: 9.29912e-23 max: 1.22359e-11 average: 7.40011e-13
DILUPBiCGStab:  Solving for k, Initial residual = 0.0105921, Final residual = 0.000167752, No Iterations 1
bounding k, min: 3.0592e-16 max: 6.9934e-08 average: 2.0618e-08
ExecutionTime = 310.34 s  ClockTime = 326 s

Time = 996

DILUPBiCGStab:  Solving for Ux, Initial residual = 0.00672647, Final residual = 0.000112405, No Iterations 1
DILUPBiCGStab:  Solving for Uy, Initial residual = 0.00415612, Final residual = 7.16048e-05, No Iterations 1
DILUPBiCGStab:  Solving for Uz, Initial residual = 0.00503158, Final residual = 7.98897e-05, No Iterations 1
DILUPBiCGStab:  Solving for T, Initial residual = 0.270149, Final residual = 0.00882961, No Iterations 1
DICPCG:  Solving for p_rgh, Initial residual = 3.01386e-10, Final residual = 3.01386e-10, No Iterations 0
time step continuity errors : sum local = 4.72827e-10, global = 2.69833e-26, cumulative = -1.77587e-26
DILUPBiCGStab:  Solving for epsilon, Initial residual = 0.0111034, Final residual = 0.000184181, No Iterations 1
bounding epsilon, min: 9.29912e-23 max: 1.19726e-11 average: 7.24413e-13
DILUPBiCGStab:  Solving for k, Initial residual = 0.0105724, Final residual = 0.000167439, No Iterations 1
bounding k, min: 3.0592e-16 max: 6.89438e-08 average: 2.03167e-08
ExecutionTime = 310.64 s  ClockTime = 327 s

Time = 997

DILUPBiCGStab:  Solving for Ux, Initial residual = 0.00678433, Final residual = 0.000113743, No Iterations 1
DILUPBiCGStab:  Solving for Uy, Initial residual = 0.00414343, Final residual = 7.10195e-05, No Iterations 1
DILUPBiCGStab:  Solving for Uz, Initial residual = 0.00511741, Final residual = 8.11073e-05, No Iterations 1
DILUPBiCGStab:  Solving for T, Initial residual = 0.265944, Final residual = 0.00844943, No Iterations 1
DICPCG:  Solving for p_rgh, Initial residual = 3.03102e-10, Final residual = 3.03102e-10, No Iterations 0
time step continuity errors : sum local = 4.75657e-10, global = 9.34362e-26, cumulative = 7.56775e-26
DILUPBiCGStab:  Solving for epsilon, Initial residual = 0.0110765, Final residual = 0.000184147, No Iterations 1
bounding epsilon, min: 9.29912e-23 max: 1.17147e-11 average: 7.09138e-13
DILUPBiCGStab:  Solving for k, Initial residual = 0.0105528, Final residual = 0.000167125, No Iterations 1
bounding k, min: 3.0592e-16 max: 6.79673e-08 average: 2.00197e-08
ExecutionTime = 310.94 s  ClockTime = 327 s

Time = 998

DILUPBiCGStab:  Solving for Ux, Initial residual = 0.00674497, Final residual = 0.000113805, No Iterations 1
DILUPBiCGStab:  Solving for Uy, Initial residual = 0.00414287, Final residual = 7.1004e-05, No Iterations 1
DILUPBiCGStab:  Solving for Uz, Initial residual = 0.00508259, Final residual = 8.07556e-05, No Iterations 1
DILUPBiCGStab:  Solving for T, Initial residual = 0.269267, Final residual = 0.00877346, No Iterations 1
DICPCG:  Solving for p_rgh, Initial residual = 3.05133e-10, Final residual = 3.05133e-10, No Iterations 0
time step continuity errors : sum local = 4.78559e-10, global = -7.64175e-26, cumulative = -7.39984e-28
DILUPBiCGStab:  Solving for epsilon, Initial residual = 0.0110497, Final residual = 0.000184134, No Iterations 1
bounding epsilon, min: 9.29912e-23 max: 1.14624e-11 average: 6.94181e-13
DILUPBiCGStab:  Solving for k, Initial residual = 0.0105331, Final residual = 0.00016681, No Iterations 1
bounding k, min: 3.05919e-16 max: 6.70042e-08 average: 1.97269e-08
ExecutionTime = 311.23 s  ClockTime = 327 s

Time = 999

DILUPBiCGStab:  Solving for Ux, Initial residual = 0.00675293, Final residual = 0.000112948, No Iterations 1
DILUPBiCGStab:  Solving for Uy, Initial residual = 0.00415245, Final residual = 7.15717e-05, No Iterations 1
DILUPBiCGStab:  Solving for Uz, Initial residual = 0.00505322, Final residual = 8.08256e-05, No Iterations 1
DILUPBiCGStab:  Solving for T, Initial residual = 0.266487, Final residual = 0.00874534, No Iterations 1
DICPCG:  Solving for p_rgh, Initial residual = 3.06592e-10, Final residual = 3.06592e-10, No Iterations 0
time step continuity errors : sum local = 4.80979e-10, global = -2.21656e-25, cumulative = -2.22396e-25
DILUPBiCGStab:  Solving for epsilon, Initial residual = 0.0110231, Final residual = 0.000184142, No Iterations 1
bounding epsilon, min: 9.29912e-23 max: 1.12153e-11 average: 6.79535e-13
DILUPBiCGStab:  Solving for k, Initial residual = 0.0105133, Final residual = 0.000166494, No Iterations 1
bounding k, min: 3.0592e-16 max: 6.60544e-08 average: 1.94382e-08
ExecutionTime = 311.54 s  ClockTime = 328 s

Time = 1000

DILUPBiCGStab:  Solving for Ux, Initial residual = 0.00674489, Final residual = 0.000112923, No Iterations 1
DILUPBiCGStab:  Solving for Uy, Initial residual = 0.00414512, Final residual = 7.13617e-05, No Iterations 1
DILUPBiCGStab:  Solving for Uz, Initial residual = 0.00510334, Final residual = 8.1479e-05, No Iterations 1
DILUPBiCGStab:  Solving for T, Initial residual = 0.271907, Final residual = 0.00887871, No Iterations 1
DICPCG:  Solving for p_rgh, Initial residual = 3.0812e-10, Final residual = 3.0812e-10, No Iterations 0
time step continuity errors : sum local = 4.8336e-10, global = -9.5236e-26, cumulative = -3.17632e-25
DILUPBiCGStab:  Solving for epsilon, Initial residual = 0.0109966, Final residual = 0.000184171, No Iterations 1
bounding epsilon, min: 9.29912e-23 max: 1.09734e-11 average: 6.65193e-13
DILUPBiCGStab:  Solving for k, Initial residual = 0.0104935, Final residual = 0.000166178, No Iterations 1
bounding k, min: 3.05919e-16 max: 6.51177e-08 average: 1.91535e-08
ExecutionTime = 312.53 s  ClockTime = 329 s

    functionObjects::CourantNo CourantNo writing field: Co
End

