/*---------------------------------------------------------------------------*\
| =========                 |                                                 |
| \\      /  F ield         | OpenFOAM: The Open Source CFD Toolbox           |
|  \\    /   O peration     | Version:  2012                                  |
|   \\  /    A nd           | Website:  www.openfoam.com                      |
|    \\/     M anipulation  |                                                 |
\*---------------------------------------------------------------------------*/
Build  : _269d0ffd5c-20210619 OPENFOAM=2012 patch=210618
Arch   : "LSB;label=32;scalar=64"
Exec   : /usr/lib/openfoam/openfoam2012/platforms/linux64GccDPInt32Opt/bin/buoyantBoussinesqSimpleFoam
Date   : Aug 22 2022
Time   : 18:51:53
Host   : 524f94ff4984
PID    : 695
I/O    : uncollated
Case   : /home/openfoam/of2012_projects/hotRoom4_B
nProcs : 1
trapFpe: Floating point exception trapping enabled (FOAM_SIGFPE).
fileModificationChecking : Monitoring run-time modified files using timeStampMaster (fileModificationSkew 5, maxFileModificationPolls 20)
allowSystemOperations : Allowing user-supplied system call operations

// * * * * * * * * * * * * * * * * * * * * * * * * * * * * * * * * * * * * * //
Create time

Create mesh for time = 0


SIMPLE: convergence criteria
    field p_rgh	 tolerance 0.01
    field U	 tolerance 0.0001
    field T	 tolerance 0.01
    field "(k|epsilon|omega)"	 tolerance 0.001

Reading thermophysical properties

Reading field T

Reading field p_rgh

Reading field U

Reading/calculating face flux field phi

Selecting incompressible transport model Newtonian
Creating turbulence model

Selecting turbulence model type RAS
Selecting RAS turbulence model kEpsilon
RAS
{
    RASModel        kEpsilon;
    turbulence      on;
    printCoeffs     on;
    Cmu             0.09;
    C1              1.44;
    C2              1.92;
    C3              0;
    sigmak          1;
    sigmaEps        1.3;
}

Reading field alphat


Reading g

Reading hRef
Calculating field g.h

No MRF models present

Radiation model not active: radiationProperties not found
Selecting radiationModel none
No finite volume options present

Starting time loop

Time = 1

DILUPBiCGStab:  Solving for Ux, Initial residual = 1, Final residual = 0.0017196, No Iterations 1
DILUPBiCGStab:  Solving for Uy, Initial residual = 1, Final residual = 0.00277766, No Iterations 1
DILUPBiCGStab:  Solving for Uz, Initial residual = 1, Final residual = 0.00290086, No Iterations 1
DILUPBiCGStab:  Solving for T, Initial residual = 0.478767, Final residual = 0.0151205, No Iterations 1
DICPCG:  Solving for p_rgh, Initial residual = 1, Final residual = 0.00938584, No Iterations 702
time step continuity errors : sum local = 257.273, global = -0.337943, cumulative = -0.337943
DILUPBiCGStab:  Solving for epsilon, Initial residual = 0.98721, Final residual = 0.0274707, No Iterations 1
DILUPBiCGStab:  Solving for k, Initial residual = 1, Final residual = 0.0406413, No Iterations 1
ExecutionTime = 2.89 s  ClockTime = 3 s

Time = 2

DILUPBiCGStab:  Solving for Ux, Initial residual = 0.193303, Final residual = 0.00210795, No Iterations 1
DILUPBiCGStab:  Solving for Uy, Initial residual = 0.196155, Final residual = 0.00208513, No Iterations 1
DILUPBiCGStab:  Solving for Uz, Initial residual = 0.198015, Final residual = 0.00201629, No Iterations 1
DILUPBiCGStab:  Solving for T, Initial residual = 0.411916, Final residual = 0.021239, No Iterations 1
DICPCG:  Solving for p_rgh, Initial residual = 7.44315e-12, Final residual = 7.44315e-12, No Iterations 0
time step continuity errors : sum local = 50.0753, global = -0.703813, cumulative = -1.04176
DILUPBiCGStab:  Solving for epsilon, Initial residual = 0.884097, Final residual = 0.00866488, No Iterations 1
DILUPBiCGStab:  Solving for k, Initial residual = 0.967612, Final residual = 0.0127167, No Iterations 1
ExecutionTime = 3.18 s  ClockTime = 4 s

Time = 3

DILUPBiCGStab:  Solving for Ux, Initial residual = 0.200864, Final residual = 0.000796963, No Iterations 1
DILUPBiCGStab:  Solving for Uy, Initial residual = 0.252947, Final residual = 0.000864926, No Iterations 1
DILUPBiCGStab:  Solving for Uz, Initial residual = 0.216406, Final residual = 0.000942833, No Iterations 1
DILUPBiCGStab:  Solving for T, Initial residual = 0.407384, Final residual = 0.00553647, No Iterations 1
DICPCG:  Solving for p_rgh, Initial residual = 7.18159e-12, Final residual = 7.18159e-12, No Iterations 0
time step continuity errors : sum local = 35.1032, global = -1.31171, cumulative = -2.35347
DILUPBiCGStab:  Solving for epsilon, Initial residual = 0.116785, Final residual = 0.000341274, No Iterations 1
bounding epsilon, min: -1583.59 max: 32399.3 average: 459.991
DILUPBiCGStab:  Solving for k, Initial residual = 0.453783, Final residual = 0.0235598, No Iterations 1
bounding k, min: -8.38715 max: 3166.36 average: 386.845
ExecutionTime = 3.47 s  ClockTime = 4 s

Time = 4

DILUPBiCGStab:  Solving for Ux, Initial residual = 0.308374, Final residual = 0.00327487, No Iterations 1
DILUPBiCGStab:  Solving for Uy, Initial residual = 0.322227, Final residual = 0.00279224, No Iterations 1
DILUPBiCGStab:  Solving for Uz, Initial residual = 0.27508, Final residual = 0.0025909, No Iterations 1
DILUPBiCGStab:  Solving for T, Initial residual = 0.379402, Final residual = 0.0114014, No Iterations 1
DICPCG:  Solving for p_rgh, Initial residual = 1.64268e-10, Final residual = 1.64268e-10, No Iterations 0
time step continuity errors : sum local = 648.883, global = -339.212, cumulative = -341.566
DILUPBiCGStab:  Solving for epsilon, Initial residual = 0.995427, Final residual = 0.0230008, No Iterations 1
bounding epsilon, min: -288.686 max: 5.13506e+08 average: 254639
DILUPBiCGStab:  Solving for k, Initial residual = 0.996644, Final residual = 0.00289284, No Iterations 1
ExecutionTime = 3.76 s  ClockTime = 4 s

Time = 5

DILUPBiCGStab:  Solving for Ux, Initial residual = 0.170689, Final residual = 0.00133506, No Iterations 1
DILUPBiCGStab:  Solving for Uy, Initial residual = 0.256944, Final residual = 0.00228369, No Iterations 1
DILUPBiCGStab:  Solving for Uz, Initial residual = 0.231273, Final residual = 0.00190403, No Iterations 1
DILUPBiCGStab:  Solving for T, Initial residual = 0.629747, Final residual = 0.0174624, No Iterations 1
DICPCG:  Solving for p_rgh, Initial residual = 1.40104e-10, Final residual = 1.40104e-10, No Iterations 0
time step continuity errors : sum local = 492.777, global = -289.603, cumulative = -631.169
DILUPBiCGStab:  Solving for epsilon, Initial residual = 0.101944, Final residual = 0.000885167, No Iterations 1
bounding epsilon, min: -5.43402e+06 max: 7.32328e+10 average: 3.37552e+07
DILUPBiCGStab:  Solving for k, Initial residual = 0.442378, Final residual = 0.00732349, No Iterations 1
ExecutionTime = 4.05 s  ClockTime = 4 s

Time = 6

DILUPBiCGStab:  Solving for Ux, Initial residual = 0.00767633, Final residual = 1.54849e-12, No Iterations 1
DILUPBiCGStab:  Solving for Uy, Initial residual = 0.00756497, Final residual = 1.49898e-12, No Iterations 1
DILUPBiCGStab:  Solving for Uz, Initial residual = 0.0296833, Final residual = 3.86325e-12, No Iterations 1
DILUPBiCGStab:  Solving for T, Initial residual = 0.495167, Final residual = 7.64428e-14, No Iterations 1
DICPCG:  Solving for p_rgh, Initial residual = 8.05044e-09, Final residual = 8.05044e-09, No Iterations 0
time step continuity errors : sum local = 26489.7, global = -8100.07, cumulative = -8731.23
DILUPBiCGStab:  Solving for epsilon, Initial residual = 0.000600092, Final residual = 1.0605e-13, No Iterations 1
bounding epsilon, min: -5.77829e+09 max: 2.444e+14 average: 5.26763e+10
DILUPBiCGStab:  Solving for k, Initial residual = 0.024867, Final residual = 9.27538e-12, No Iterations 1
bounding k, min: -1.51401e+07 max: 5.56984e+11 average: 7.57021e+07
ExecutionTime = 4.34 s  ClockTime = 5 s

Time = 7

DILUPBiCGStab:  Solving for Ux, Initial residual = 0.000843686, Final residual = 7.3821e-06, No Iterations 1
DILUPBiCGStab:  Solving for Uy, Initial residual = 0.00731694, Final residual = 7.65802e-05, No Iterations 1
DILUPBiCGStab:  Solving for Uz, Initial residual = 0.00128961, Final residual = 1.38893e-05, No Iterations 1
DILUPBiCGStab:  Solving for T, Initial residual = 0.69375, Final residual = 0.0059569, No Iterations 1
DICPCG:  Solving for p_rgh, Initial residual = 7.0941e-06, Final residual = 3.08956, No Iterations 1000
time step continuity errors : sum local = 9.64152e+12, global = -656911, cumulative = -665642
DILUPBiCGStab:  Solving for epsilon, Initial residual = 0.000718514, Final residual = 3.1311e-05, No Iterations 1
bounding epsilon, min: -3.36669e+08 max: 1.89729e+25 average: 1.34575e+21
DILUPBiCGStab:  Solving for k, Initial residual = 0.024327, Final residual = 0.00204239, No Iterations 1
bounding k, min: -16428 max: 1.01449e+18 average: 3.42715e+15
ExecutionTime = 7.64 s  ClockTime = 8 s

Time = 8

DILUPBiCGStab:  Solving for Ux, Initial residual = 0.205572, Final residual = 0.000903819, No Iterations 1
DILUPBiCGStab:  Solving for Uy, Initial residual = 0.218972, Final residual = 0.00186583, No Iterations 1
DILUPBiCGStab:  Solving for Uz, Initial residual = 0.225978, Final residual = 0.00111409, No Iterations 1
DILUPBiCGStab:  Solving for T, Initial residual = 0.24546, Final residual = 0.00597089, No Iterations 1
DICPCG:  Solving for p_rgh, Initial residual = 0.910923, Final residual = 0.00908698, No Iterations 3
time step continuity errors : sum local = 2.7466e+19, global = 1.37968e+10, cumulative = 1.37961e+10
DILUPBiCGStab:  Solving for epsilon, Initial residual = 0.354929, Final residual = 0.00656656, No Iterations 1
bounding epsilon, min: -3.56429e+24 max: 5.18327e+33 average: 2.46704e+30
DILUPBiCGStab:  Solving for k, Initial residual = 1, Final residual = 0.00344164, No Iterations 1
bounding k, min: -4.2348e+16 max: 7.0173e+28 average: 7.56371e+25
ExecutionTime = 7.97 s  ClockTime = 8 s

Time = 9

DILUPBiCGStab:  Solving for Ux, Initial residual = 2.12063e-06, Final residual = 2.12063e-06, No Iterations 0
DILUPBiCGStab:  Solving for Uy, Initial residual = 4.91108e-07, Final residual = 4.91108e-07, No Iterations 0
DILUPBiCGStab:  Solving for Uz, Initial residual = 4.2925e-06, Final residual = 4.2925e-06, No Iterations 0
DILUPBiCGStab:  Solving for T, Initial residual = 0.000198245, Final residual = 9.40235e-07, No Iterations 1
DICPCG:  Solving for p_rgh, Initial residual = 0.803576, Final residual = 0.00658576, No Iterations 11
time step continuity errors : sum local = 4.46053e+21, global = 2.87495e+10, cumulative = 4.25456e+10
DILUPBiCGStab:  Solving for epsilon, Initial residual = 0.234119, Final residual = 7.86862e-19, No Iterations 1
bounding epsilon, min: -2.06627e+40 max: 6.81481e+49 average: 3.30601e+46
DILUPBiCGStab:  Solving for k, Initial residual = 0.509817, Final residual = 0.00127669, No Iterations 1
bounding k, min: -3.23129e+25 max: 4.11769e+45 average: 1.56651e+42
ExecutionTime = 8.29 s  ClockTime = 9 s

Time = 10

DILUPBiCGStab:  Solving for Ux, Initial residual = 1.6742e-09, Final residual = 1.6742e-09, No Iterations 0
DILUPBiCGStab:  Solving for Uy, Initial residual = 2.89314e-10, Final residual = 2.89314e-10, No Iterations 0
DILUPBiCGStab:  Solving for Uz, Initial residual = 2.87159e-10, Final residual = 2.87159e-10, No Iterations 0
DILUPBiCGStab:  Solving for T, Initial residual = 0.00142775, Final residual = 4.62571e-20, No Iterations 1
DICPCG:  Solving for p_rgh, Initial residual = 0.975512, Final residual = 8.15136e-05, No Iterations 2
time step continuity errors : sum local = 9.73217e+39, global = 5.41568e+23, cumulative = 5.41568e+23
DILUPBiCGStab:  Solving for epsilon, Initial residual = 8.06987e-12, Final residual = 8.06987e-12, No Iterations 0
bounding epsilon, min: 4.50535e-23 max: 7.45562e+63 average: 7.87279e+59
DILUPBiCGStab:  Solving for k, Initial residual = 2.3183e-08, Final residual = 2.3183e-08, No Iterations 0
ExecutionTime = 8.58 s  ClockTime = 9 s

Time = 11

DILUPBiCGStab:  Solving for Ux, Initial residual = 0.000157491, Final residual = 1.85216e-20, No Iterations 1
DILUPBiCGStab:  Solving for Uy, Initial residual = 0.00327334, Final residual = 5.67176e-19, No Iterations 1
DILUPBiCGStab:  Solving for Uz, Initial residual = 0.000184857, Final residual = 1.7424e-20, No Iterations 1
DILUPBiCGStab:  Solving for T, Initial residual = 0.00195308, Final residual = 2.98554e-17, No Iterations 1
DICPCG:  Solving for p_rgh, Initial residual = 0.0755011, Final residual = 13.6213, No Iterations 1000
time step continuity errors : sum local = 3.01989e+53, global = 1.1576e+51, cumulative = 1.1576e+51
DILUPBiCGStab:  Solving for epsilon, Initial residual = 1, Final residual = 0.0301769, No Iterations 1
bounding epsilon, min: 4.50535e-23 max: 2.32436e+93 average: 4.88972e+89
DILUPBiCGStab:  Solving for k, Initial residual = 1, Final residual = 4.8174e-15, No Iterations 1
ExecutionTime = 11.87 s  ClockTime = 12 s

Time = 12

