/*---------------------------------------------------------------------------*\
| =========                 |                                                 |
| \\      /  F ield         | OpenFOAM: The Open Source CFD Toolbox           |
|  \\    /   O peration     | Version:  2012                                  |
|   \\  /    A nd           | Website:  www.openfoam.com                      |
|    \\/     M anipulation  |                                                 |
\*---------------------------------------------------------------------------*/
Build  : _269d0ffd5c-20210619 OPENFOAM=2012 patch=210618
Arch   : "LSB;label=32;scalar=64"
Exec   : /usr/lib/openfoam/openfoam2012/platforms/linux64GccDPInt32Opt/bin/buoyantBoussinesqSimpleFoam
Date   : Aug 22 2022
Time   : 22:30:16
Host   : 524f94ff4984
PID    : 1045
I/O    : uncollated
Case   : /home/openfoam/of2012_projects/hotRoom4_B
nProcs : 1
trapFpe: Floating point exception trapping enabled (FOAM_SIGFPE).
fileModificationChecking : Monitoring run-time modified files using timeStampMaster (fileModificationSkew 5, maxFileModificationPolls 20)
allowSystemOperations : Allowing user-supplied system call operations

// * * * * * * * * * * * * * * * * * * * * * * * * * * * * * * * * * * * * * //
Create time

Create mesh for time = 0


SIMPLE: convergence criteria
    field p_rgh	 tolerance 0.01
    field U	 tolerance 0.0001
    field T	 tolerance 0.01
    field "(k|epsilon|omega)"	 tolerance 0.001

Reading thermophysical properties

Reading field T

Reading field p_rgh

Reading field U

Reading/calculating face flux field phi

Selecting incompressible transport model Newtonian
Creating turbulence model

Selecting turbulence model type RAS
Selecting RAS turbulence model kEpsilon
RAS
{
    RASModel        kEpsilon;
    turbulence      on;
    printCoeffs     on;
    Cmu             0.09;
    C1              1.44;
    C2              1.92;
    C3              0;
    sigmak          1;
    sigmaEps        1.3;
}

Reading field alphat


Reading g

Reading hRef
Calculating field g.h

No MRF models present

Radiation model not active: radiationProperties not found
Selecting radiationModel none
No finite volume options present

Starting time loop

Time = 1

DILUPBiCGStab:  Solving for Ux, Initial residual = 1, Final residual = 0.00213046, No Iterations 1
DILUPBiCGStab:  Solving for Uy, Initial residual = 1, Final residual = 0.00933007, No Iterations 1
DILUPBiCGStab:  Solving for Uz, Initial residual = 1, Final residual = 0.00289817, No Iterations 1
DILUPBiCGStab:  Solving for T, Initial residual = 0.478767, Final residual = 0.0151205, No Iterations 1
DICPCG:  Solving for p_rgh, Initial residual = 1, Final residual = 0.00984792, No Iterations 747
time step continuity errors : sum local = 279.622, global = -0.338063, cumulative = -0.338063
DILUPBiCGStab:  Solving for epsilon, Initial residual = 0.988115, Final residual = 0.0284861, No Iterations 1
DILUPBiCGStab:  Solving for k, Initial residual = 1, Final residual = 0.040209, No Iterations 1
ExecutionTime = 5.28 s  ClockTime = 5 s

Time = 2

DILUPBiCGStab:  Solving for Ux, Initial residual = 0.192899, Final residual = 0.00201165, No Iterations 1
DILUPBiCGStab:  Solving for Uy, Initial residual = 0.193684, Final residual = 0.00200711, No Iterations 1
DILUPBiCGStab:  Solving for Uz, Initial residual = 0.200213, Final residual = 0.00218344, No Iterations 1
DILUPBiCGStab:  Solving for T, Initial residual = 0.40878, Final residual = 0.0206341, No Iterations 1
DICPCG:  Solving for p_rgh, Initial residual = 8.57861e-12, Final residual = 8.57861e-12, No Iterations 0
time step continuity errors : sum local = 54.0922, global = -0.658584, cumulative = -0.996647
DILUPBiCGStab:  Solving for epsilon, Initial residual = 0.87111, Final residual = 0.0080788, No Iterations 1
DILUPBiCGStab:  Solving for k, Initial residual = 0.971384, Final residual = 0.0126731, No Iterations 1
ExecutionTime = 5.76 s  ClockTime = 6 s

Time = 3

DILUPBiCGStab:  Solving for Ux, Initial residual = 0.215341, Final residual = 0.00105837, No Iterations 1
DILUPBiCGStab:  Solving for Uy, Initial residual = 0.204202, Final residual = 0.000990199, No Iterations 1
DILUPBiCGStab:  Solving for Uz, Initial residual = 0.231654, Final residual = 0.00127132, No Iterations 1
DILUPBiCGStab:  Solving for T, Initial residual = 0.407952, Final residual = 0.0085298, No Iterations 1
DICPCG:  Solving for p_rgh, Initial residual = 3.85663e-12, Final residual = 3.85663e-12, No Iterations 0
time step continuity errors : sum local = 38.3189, global = -1.16835, cumulative = -2.165
DILUPBiCGStab:  Solving for epsilon, Initial residual = 0.150462, Final residual = 0.000137043, No Iterations 1
bounding epsilon, min: -4542.55 max: 434608 average: 644.258
DILUPBiCGStab:  Solving for k, Initial residual = 0.459857, Final residual = 0.0165562, No Iterations 1
ExecutionTime = 6.25 s  ClockTime = 6 s

Time = 4

DILUPBiCGStab:  Solving for Ux, Initial residual = 0.153587, Final residual = 6.23027e-05, No Iterations 1
DILUPBiCGStab:  Solving for Uy, Initial residual = 0.265782, Final residual = 4.95503e-05, No Iterations 1
DILUPBiCGStab:  Solving for Uz, Initial residual = 0.164275, Final residual = 0.000166548, No Iterations 1
DILUPBiCGStab:  Solving for T, Initial residual = 0.471698, Final residual = 0.00154087, No Iterations 1
DICPCG:  Solving for p_rgh, Initial residual = 3.21056e-11, Final residual = 3.21056e-11, No Iterations 0
time step continuity errors : sum local = 333.172, global = -47.0733, cumulative = -49.2383
DILUPBiCGStab:  Solving for epsilon, Initial residual = 0.590917, Final residual = 0.000763456, No Iterations 1
bounding epsilon, min: -735.641 max: 3.29609e+08 average: 87167.3
DILUPBiCGStab:  Solving for k, Initial residual = 0.524345, Final residual = 0.00154296, No Iterations 1
ExecutionTime = 6.73 s  ClockTime = 7 s

Time = 5

DILUPBiCGStab:  Solving for Ux, Initial residual = 0.295575, Final residual = 0.000731883, No Iterations 1
DILUPBiCGStab:  Solving for Uy, Initial residual = 0.325666, Final residual = 0.000767811, No Iterations 1
DILUPBiCGStab:  Solving for Uz, Initial residual = 0.3358, Final residual = 0.00231007, No Iterations 1
DILUPBiCGStab:  Solving for T, Initial residual = 0.665315, Final residual = 0.0351486, No Iterations 1
DICPCG:  Solving for p_rgh, Initial residual = 2.07697e-10, Final residual = 2.07697e-10, No Iterations 0
time step continuity errors : sum local = 2354.36, global = -45.5483, cumulative = -94.7866
DILUPBiCGStab:  Solving for epsilon, Initial residual = 0.0769078, Final residual = 1.00689e-05, No Iterations 1
bounding epsilon, min: -1.12752e+08 max: 1.76313e+11 average: 3.24023e+07
DILUPBiCGStab:  Solving for k, Initial residual = 0.666191, Final residual = 0.0128494, No Iterations 1
bounding k, min: -23332.9 max: 1.18815e+09 average: 380452
ExecutionTime = 7.21 s  ClockTime = 7 s

Time = 6

DILUPBiCGStab:  Solving for Ux, Initial residual = 0.00149944, Final residual = 1.48788e-05, No Iterations 1
DILUPBiCGStab:  Solving for Uy, Initial residual = 0.0390146, Final residual = 0.000345775, No Iterations 1
DILUPBiCGStab:  Solving for Uz, Initial residual = 0.0114101, Final residual = 6.80199e-05, No Iterations 1
DILUPBiCGStab:  Solving for T, Initial residual = 0.743032, Final residual = 0.0258404, No Iterations 1
DICPCG:  Solving for p_rgh, Initial residual = 2.71726e-09, Final residual = 2.71726e-09, No Iterations 0
time step continuity errors : sum local = 35045.6, global = -34.1226, cumulative = -128.909
DILUPBiCGStab:  Solving for epsilon, Initial residual = 5.7472e-05, Final residual = 1.52579e-06, No Iterations 1
bounding epsilon, min: -2.60674e+09 max: 1.69753e+14 average: 4.29492e+10
DILUPBiCGStab:  Solving for k, Initial residual = 0.236246, Final residual = 0.0118153, No Iterations 1
bounding k, min: -35023.2 max: 4.50876e+11 average: 1.1716e+08
ExecutionTime = 7.7 s  ClockTime = 8 s

Time = 7

DILUPBiCGStab:  Solving for Ux, Initial residual = 0.14616, Final residual = 0.00105696, No Iterations 1
DILUPBiCGStab:  Solving for Uy, Initial residual = 0.379497, Final residual = 0.00104013, No Iterations 1
DILUPBiCGStab:  Solving for Uz, Initial residual = 0.0627437, Final residual = 0.00017581, No Iterations 1
DILUPBiCGStab:  Solving for T, Initial residual = 0.278817, Final residual = 0.00955577, No Iterations 1
DICPCG:  Solving for p_rgh, Initial residual = 1.15909e-05, Final residual = 1.08243e-07, No Iterations 4
time step continuity errors : sum local = 1.65273e+06, global = 313.377, cumulative = 184.468
DILUPBiCGStab:  Solving for epsilon, Initial residual = 4.34597e-06, Final residual = 4.34597e-06, No Iterations 0
DILUPBiCGStab:  Solving for k, Initial residual = 0.00279945, Final residual = 0.000180056, No Iterations 1
bounding k, min: -5.12664e+09 max: 2.42546e+18 average: 4.7542e+14
ExecutionTime = 8.2 s  ClockTime = 8 s

Time = 8

DILUPBiCGStab:  Solving for Ux, Initial residual = 0.635328, Final residual = 0.00461987, No Iterations 1
DILUPBiCGStab:  Solving for Uy, Initial residual = 0.753615, Final residual = 0.00415791, No Iterations 1
DILUPBiCGStab:  Solving for Uz, Initial residual = 0.245083, Final residual = 0.00105165, No Iterations 1
DILUPBiCGStab:  Solving for T, Initial residual = 0.337754, Final residual = 0.00521423, No Iterations 1
DICPCG:  Solving for p_rgh, Initial residual = 0.18099, Final residual = 0.0846317, No Iterations 1000
time step continuity errors : sum local = 9.97484e+21, global = 3.40901e+19, cumulative = 3.40901e+19
DILUPBiCGStab:  Solving for epsilon, Initial residual = 0.934051, Final residual = 0.0474939, No Iterations 1
bounding epsilon, min: -5.39844e+25 max: 2.99954e+40 average: 2.12207e+36
DILUPBiCGStab:  Solving for k, Initial residual = 0.248839, Final residual = 0.0162593, No Iterations 1
ExecutionTime = 13.64 s  ClockTime = 14 s

Time = 9

DILUPBiCGStab:  Solving for Ux, Initial residual = 5.33958e-09, Final residual = 5.33958e-09, No Iterations 0
DILUPBiCGStab:  Solving for Uy, Initial residual = 1.89515e-08, Final residual = 1.89515e-08, No Iterations 0
DILUPBiCGStab:  Solving for Uz, Initial residual = 7.03774e-09, Final residual = 7.03774e-09, No Iterations 0
DILUPBiCGStab:  Solving for T, Initial residual = 0.189189, Final residual = 0.00549937, No Iterations 1
DICPCG:  Solving for p_rgh, Initial residual = 1.85343e-09, Final residual = 1.85343e-09, No Iterations 0
time step continuity errors : sum local = 2.80687e+21, global = 5.16697e+19, cumulative = 8.57597e+19
DILUPBiCGStab:  Solving for epsilon, Initial residual = 6.34774e-05, Final residual = 1.85837e-06, No Iterations 1
bounding epsilon, min: -4.20525e+41 max: 1.66693e+46 average: 2.02717e+43
DILUPBiCGStab:  Solving for k, Initial residual = 0.0591029, Final residual = 0.00100531, No Iterations 1
bounding k, min: -2.02137e+27 max: 7.41892e+44 average: 1.62437e+42
ExecutionTime = 14.09 s  ClockTime = 14 s

Time = 10

DILUPBiCGStab:  Solving for Ux, Initial residual = 0.239451, Final residual = 0.00208721, No Iterations 1
DILUPBiCGStab:  Solving for Uy, Initial residual = 0.226806, Final residual = 0.00179499, No Iterations 1
DILUPBiCGStab:  Solving for Uz, Initial residual = 0.266365, Final residual = 0.00191512, No Iterations 1
DILUPBiCGStab:  Solving for T, Initial residual = 0.0191103, Final residual = 0.000855168, No Iterations 1
DICPCG:  Solving for p_rgh, Initial residual = 1, Final residual = nan, No Iterations 1000
time step continuity errors : sum local = nan, global = -nan, cumulative = -nan
DILUPBiCGStab:  Solving for epsilon, Initial residual = nan, Final residual = nan, No Iterations 1000
bounding epsilon, min: 1.72014e-22 max: 5.77455e+65 average: nan
DILUPBiCGStab:  Solving for k, Initial residual = nan, Final residual = nan, No Iterations 1000
ExecutionTime = 61.65 s  ClockTime = 62 s



--> FOAM FATAL IO ERROR: (openfoam-2012 patch=210618)
Wrong token type - expected scalar value, found on line 0: word 'nan'

file: /home/openfoam/of2012_projects/hotRoom4_B/system/data.solverPerformance.p_rgh at line 0.

    From Foam::Istream& Foam::operator>>(Foam::Istream&, Foam::doubleScalar&)
    in file lnInclude/Scalar.C at line 154.

FOAM exiting

