/*---------------------------------------------------------------------------*\
| =========                 |                                                 |
| \\      /  F ield         | OpenFOAM: The Open Source CFD Toolbox           |
|  \\    /   O peration     | Version:  2012                                  |
|   \\  /    A nd           | Website:  www.openfoam.com                      |
|    \\/     M anipulation  |                                                 |
\*---------------------------------------------------------------------------*/
Build  : _269d0ffd5c-20210619 OPENFOAM=2012 patch=210618
Arch   : "LSB;label=32;scalar=64"
Exec   : /usr/lib/openfoam/openfoam2012/platforms/linux64GccDPInt32Opt/bin/buoyantBoussinesqSimpleFoam
Date   : Aug 24 2022
Time   : 17:43:44
Host   : 3142f0d1db43
PID    : 759
I/O    : uncollated
Case   : /home/openfoam/of2012_projects/hotRoom4C_topVel
nProcs : 1
trapFpe: Floating point exception trapping enabled (FOAM_SIGFPE).
fileModificationChecking : Monitoring run-time modified files using timeStampMaster (fileModificationSkew 5, maxFileModificationPolls 20)
allowSystemOperations : Allowing user-supplied system call operations

// * * * * * * * * * * * * * * * * * * * * * * * * * * * * * * * * * * * * * //
Create time

Create mesh for time = 0


SIMPLE: convergence criteria
    field p_rgh	 tolerance 0.01
    field U	 tolerance 0.0001
    field T	 tolerance 0.01
    field "(k|epsilon|omega)"	 tolerance 0.001

Reading thermophysical properties

Reading field T

Reading field p_rgh

Reading field U

Reading/calculating face flux field phi

Selecting incompressible transport model Newtonian
Creating turbulence model

Selecting turbulence model type RAS
Selecting RAS turbulence model kEpsilon
kEpsilonCoeffs
{
    Cmu             0.09;
    C1              1.44;
    C2              1.92;
    sigmaEps        1.11;
    C3              0;
    sigmak          1;
}

Reading field alphat


Reading g

Reading hRef
Calculating field g.h

No MRF models present

Radiation model not active: radiationProperties not found
Selecting radiationModel none
No finite volume options present

Starting time loop

Time = 1

DILUPBiCGStab:  Solving for Ux, Initial residual = 1, Final residual = 0.00263128, No Iterations 1
DILUPBiCGStab:  Solving for Uy, Initial residual = 1, Final residual = 0.00957243, No Iterations 1
DILUPBiCGStab:  Solving for Uz, Initial residual = 1, Final residual = 0.00310706, No Iterations 1
DILUPBiCGStab:  Solving for T, Initial residual = 0.469829, Final residual = 0.0156384, No Iterations 1
DICPCG:  Solving for p_rgh, Initial residual = 1, Final residual = 0.00993167, No Iterations 456
time step continuity errors : sum local = 196.755, global = -0.287166, cumulative = -0.287166
DILUPBiCGStab:  Solving for epsilon, Initial residual = 0.992362, Final residual = 0.0303878, No Iterations 1
bounding epsilon, min: -0.00397168 max: 30.9187 average: 0.523831
DILUPBiCGStab:  Solving for k, Initial residual = 1, Final residual = 0.0396835, No Iterations 1
ExecutionTime = 3.13 s  ClockTime = 3 s

    functionObjects::CourantNo CourantNo writing field: Co
Time = 2

DILUPBiCGStab:  Solving for Ux, Initial residual = 0.160094, Final residual = 0.00264864, No Iterations 1
DILUPBiCGStab:  Solving for Uy, Initial residual = 0.160357, Final residual = 0.00278835, No Iterations 1
DILUPBiCGStab:  Solving for Uz, Initial residual = 0.16364, Final residual = 0.00265357, No Iterations 1
DILUPBiCGStab:  Solving for T, Initial residual = 0.41327, Final residual = 0.0244906, No Iterations 1
DICPCG:  Solving for p_rgh, Initial residual = 4.53113e-11, Final residual = 4.53113e-11, No Iterations 0
time step continuity errors : sum local = 39.3162, global = -0.34918, cumulative = -0.636346
DILUPBiCGStab:  Solving for epsilon, Initial residual = 0.942118, Final residual = 0.0124216, No Iterations 1
DILUPBiCGStab:  Solving for k, Initial residual = 0.971097, Final residual = 0.0136244, No Iterations 1
ExecutionTime = 4.3 s  ClockTime = 5 s

    functionObjects::CourantNo CourantNo writing field: Co
Time = 3

DILUPBiCGStab:  Solving for Ux, Initial residual = 0.260736, Final residual = 0.000767374, No Iterations 1
DILUPBiCGStab:  Solving for Uy, Initial residual = 0.222387, Final residual = 0.000809001, No Iterations 1
DILUPBiCGStab:  Solving for Uz, Initial residual = 0.236278, Final residual = 0.000817188, No Iterations 1
DILUPBiCGStab:  Solving for T, Initial residual = 0.389873, Final residual = 0.00422353, No Iterations 1
DICPCG:  Solving for p_rgh, Initial residual = 3.20028e-11, Final residual = 3.20028e-11, No Iterations 0
time step continuity errors : sum local = 28.3346, global = -0.642784, cumulative = -1.27913
DILUPBiCGStab:  Solving for epsilon, Initial residual = 0.143808, Final residual = 0.00088334, No Iterations 1
bounding epsilon, min: -185.517 max: 1.18172e+06 average: 667.699
DILUPBiCGStab:  Solving for k, Initial residual = 0.572083, Final residual = 0.039347, No Iterations 1
ExecutionTime = 5.46 s  ClockTime = 7 s

    functionObjects::CourantNo CourantNo writing field: Co
Time = 4

DILUPBiCGStab:  Solving for Ux, Initial residual = 0.29439, Final residual = 0.00265441, No Iterations 1
DILUPBiCGStab:  Solving for Uy, Initial residual = 0.3468, Final residual = 0.00312278, No Iterations 1
DILUPBiCGStab:  Solving for Uz, Initial residual = 0.250199, Final residual = 0.00187098, No Iterations 1
DILUPBiCGStab:  Solving for T, Initial residual = 0.343284, Final residual = 0.0138979, No Iterations 1
DICPCG:  Solving for p_rgh, Initial residual = 2.53581e-11, Final residual = 2.53581e-11, No Iterations 0
time step continuity errors : sum local = 23.3241, global = -1.08951, cumulative = -2.36864
DILUPBiCGStab:  Solving for epsilon, Initial residual = 0.240746, Final residual = 0.00384999, No Iterations 1
bounding epsilon, min: -3.78789e+06 max: 9.26875e+07 average: 28508.5
DILUPBiCGStab:  Solving for k, Initial residual = 0.390134, Final residual = 0.00778137, No Iterations 1
ExecutionTime = 6.61 s  ClockTime = 8 s

    functionObjects::CourantNo CourantNo writing field: Co
Time = 5

DILUPBiCGStab:  Solving for Ux, Initial residual = 0.153375, Final residual = 0.00138193, No Iterations 1
DILUPBiCGStab:  Solving for Uy, Initial residual = 0.187663, Final residual = 0.00125668, No Iterations 1
DILUPBiCGStab:  Solving for Uz, Initial residual = 0.234989, Final residual = 0.00177347, No Iterations 1
DILUPBiCGStab:  Solving for T, Initial residual = 0.414634, Final residual = 0.0039934, No Iterations 1
DICPCG:  Solving for p_rgh, Initial residual = 2.03751e-11, Final residual = 2.03751e-11, No Iterations 0
time step continuity errors : sum local = 19.5343, global = -1.93033, cumulative = -4.29898
DILUPBiCGStab:  Solving for epsilon, Initial residual = 0.00511303, Final residual = 0.000252917, No Iterations 1
bounding epsilon, min: -4.34e+07 max: 6.70157e+08 average: 352061
DILUPBiCGStab:  Solving for k, Initial residual = 0.329189, Final residual = 0.0230758, No Iterations 1
bounding k, min: -1121.25 max: 1.0913e+08 average: 52500.5
ExecutionTime = 7.76 s  ClockTime = 10 s

    functionObjects::CourantNo CourantNo writing field: Co
Time = 6

DILUPBiCGStab:  Solving for Ux, Initial residual = 0.230829, Final residual = 0.000236631, No Iterations 1
DILUPBiCGStab:  Solving for Uy, Initial residual = 0.207852, Final residual = 0.000350983, No Iterations 1
DILUPBiCGStab:  Solving for Uz, Initial residual = 0.147377, Final residual = 0.000621576, No Iterations 1
DILUPBiCGStab:  Solving for T, Initial residual = 0.447439, Final residual = 0.00409509, No Iterations 1
DICPCG:  Solving for p_rgh, Initial residual = 2.20736e-11, Final residual = 2.20736e-11, No Iterations 0
time step continuity errors : sum local = 21.7595, global = -3.56801, cumulative = -7.86699
DILUPBiCGStab:  Solving for epsilon, Initial residual = 0.224488, Final residual = 0.00154667, No Iterations 1
bounding epsilon, min: -2.40078e+06 max: 4.20365e+09 average: 1.32446e+06
DILUPBiCGStab:  Solving for k, Initial residual = 0.306493, Final residual = 0.0014291, No Iterations 1
bounding k, min: -1.74225e+06 max: 1.81324e+08 average: 201788
ExecutionTime = 8.9 s  ClockTime = 11 s

    functionObjects::CourantNo CourantNo writing field: Co
Time = 7

DILUPBiCGStab:  Solving for Ux, Initial residual = 0.08828, Final residual = 7.10481e-05, No Iterations 1
DILUPBiCGStab:  Solving for Uy, Initial residual = 0.132864, Final residual = 7.66386e-05, No Iterations 1
DILUPBiCGStab:  Solving for Uz, Initial residual = 0.129191, Final residual = 0.00028433, No Iterations 1
DILUPBiCGStab:  Solving for T, Initial residual = 0.657043, Final residual = 0.000200563, No Iterations 1
DICPCG:  Solving for p_rgh, Initial residual = 0.19486, Final residual = 0.00194079, No Iterations 319
time step continuity errors : sum local = 8.9192e+12, global = -1.52721e+10, cumulative = -1.52721e+10
DILUPBiCGStab:  Solving for epsilon, Initial residual = 1, Final residual = 0.0453451, No Iterations 1
DILUPBiCGStab:  Solving for k, Initial residual = 1, Final residual = 0.000393266, No Iterations 1
bounding k, min: -26.6831 max: 1.20753e+20 average: 1.66578e+16
ExecutionTime = 11.18 s  ClockTime = 14 s

    functionObjects::CourantNo CourantNo writing field: Co
Time = 8

DILUPBiCGStab:  Solving for Ux, Initial residual = 0.21482, Final residual = 0.000675614, No Iterations 1
DILUPBiCGStab:  Solving for Uy, Initial residual = 0.184853, Final residual = 0.000871369, No Iterations 1
DILUPBiCGStab:  Solving for Uz, Initial residual = 0.255885, Final residual = 0.000733356, No Iterations 1
DILUPBiCGStab:  Solving for T, Initial residual = 0.339212, Final residual = 0.0054733, No Iterations 1
DICPCG:  Solving for p_rgh, Initial residual = 0.939904, Final residual = 0.00614032, No Iterations 25
time step continuity errors : sum local = 3.94396e+18, global = -4.42451e+12, cumulative = -4.43978e+12
DILUPBiCGStab:  Solving for epsilon, Initial residual = 1, Final residual = 0.0496828, No Iterations 1
DILUPBiCGStab:  Solving for k, Initial residual = 1, Final residual = 0.0760866, No Iterations 1
ExecutionTime = 12.58 s  ClockTime = 16 s

    functionObjects::CourantNo CourantNo writing field: Co
Time = 9

DILUPBiCGStab:  Solving for Ux, Initial residual = 0.229069, Final residual = 0.000198587, No Iterations 1
DILUPBiCGStab:  Solving for Uy, Initial residual = 0.175119, Final residual = 0.000485372, No Iterations 1
DILUPBiCGStab:  Solving for Uz, Initial residual = 0.1533, Final residual = 0.000185659, No Iterations 1
DILUPBiCGStab:  Solving for T, Initial residual = 0.445226, Final residual = 0.00253811, No Iterations 1
DICPCG:  Solving for p_rgh, Initial residual = 0.967297, Final residual = 1.30344e+06, No Iterations 1000
time step continuity errors : sum local = 1.00697e+27, global = -6.86532e+16, cumulative = -6.86576e+16
DILUPBiCGStab:  Solving for epsilon, Initial residual = 0.0671394, Final residual = 6.88352e-22, No Iterations 1
bounding epsilon, min: -1.08771e+53 max: 5.00791e+54 average: 2.39421e+51
DILUPBiCGStab:  Solving for k, Initial residual = 0.379904, Final residual = 0.00576676, No Iterations 1
bounding k, min: -1.18432e+33 max: 6.78123e+45 average: 6.09435e+42
ExecutionTime = 16.93 s  ClockTime = 21 s

    functionObjects::CourantNo CourantNo writing field: Co
Time = 10

DILUPBiCGStab:  Solving for Ux, Initial residual = 3.45544e-06, Final residual = 3.45544e-06, No Iterations 0
DILUPBiCGStab:  Solving for Uy, Initial residual = 0.000430671, Final residual = 4.29645e-07, No Iterations 1
DILUPBiCGStab:  Solving for Uz, Initial residual = 1.69323e-06, Final residual = 1.69323e-06, No Iterations 0
DILUPBiCGStab:  Solving for T, Initial residual = 0.308459, Final residual = 0.00108949, No Iterations 1
DICPCG:  Solving for p_rgh, Initial residual = 0.901677, Final residual = nan, No Iterations 1000
time step continuity errors : sum local = nan, global = -nan, cumulative = -nan
DILUPBiCGStab:  Solving for epsilon, Initial residual = nan, Final residual = nan, No Iterations 1000
bounding epsilon, min: 3.06102e-23 max: 6.06413e+66 average: nan
DILUPBiCGStab:  Solving for k, Initial residual = nan, Final residual = nan, No Iterations 1000
ExecutionTime = 46.08 s  ClockTime = 50 s



--> FOAM FATAL IO ERROR: (openfoam-2012 patch=210618)
Wrong token type - expected scalar value, found on line 0: word 'nan'

file: /home/openfoam/of2012_projects/hotRoom4C_topVel/system/data.solverPerformance.p_rgh at line 0.

    From Foam::Istream& Foam::operator>>(Foam::Istream&, Foam::doubleScalar&)
    in file lnInclude/Scalar.C at line 154.

FOAM exiting

