/*---------------------------------------------------------------------------*\
| =========                 |                                                 |
| \\      /  F ield         | OpenFOAM: The Open Source CFD Toolbox           |
|  \\    /   O peration     | Version:  v2012                                 |
|   \\  /    A nd           | Website:  www.openfoam.com                      |
|    \\/     M anipulation  |                                                 |
\*---------------------------------------------------------------------------*/
Build  : _7bdb509494-20201222 OPENFOAM=2012
Arch   : "LSB;label=32;scalar=64"
Exec   : /home/dockeruser/OpenFOAM/OpenFOAM-v2012/platforms/linux64GccDPInt32Opt/bin/simpleFoam
Date   : Aug 29 2022
Time   : 18:57:21
Host   : c905b725f41c
PID    : 4311
I/O    : uncollated
Case   : /foamdata/of2012_projects/hotRoom6E_2
nProcs : 1
trapFpe: Floating point exception trapping enabled (FOAM_SIGFPE).
fileModificationChecking : Monitoring run-time modified files using timeStampMaster (fileModificationSkew 5, maxFileModificationPolls 20)
allowSystemOperations : Allowing user-supplied system call operations

// * * * * * * * * * * * * * * * * * * * * * * * * * * * * * * * * * * * * * //
Create time

Create mesh for time = 0


SIMPLE: convergence criteria
    field p	 tolerance 0.01
    field U	 tolerance 0.001
    field "(k|epsilon|omega|f|v2)"	 tolerance 0.001

Reading field p

Reading field U

Reading/calculating face flux field phi

Selecting incompressible transport model Newtonian
Selecting turbulence model type RAS
Selecting RAS turbulence model kEpsilon
RAS
{
    RASModel        kEpsilon;
    turbulence      on;
    printCoeffs     on;
    Cmu             0.09;
    C1              1.44;
    C2              1.92;
    C3              0;
    sigmak          1;
    sigmaEps        1.3;
}

No MRF models present

No finite volume options present

Starting time loop

--> FOAM Warning :
    From simpleFunctionObject::simpleFunctionObject
    in file simpleFunctionObject/simpleFunctionObject.C at line 141
    'outputControlMode' not found in velocity
Assuming: timeStep
--> FOAM Warning :
    From simpleFunctionObject::simpleFunctionObject
    in file simpleFunctionObject/simpleFunctionObject.C at line 150
    'outputInterval' not found in velocity
Assuming: 1
--> FOAM Warning :
    From timelineFunctionObject::timelineFunctionObject
    in file timelineFunctionObject/timelineFunctionObject.C at line 94
    No entry 'writeStartTime' in "/foamdata/of2012_projects/hotRoom6E_2/system/controlDict.functions.velocity". Assuming 'no'
swak4Foam: Setting default mesh
--> FOAM Warning :
    From simpleFunctionObject::simpleFunctionObject
    in file simpleFunctionObject/simpleFunctionObject.C at line 141
    'outputControlMode' not found in pressure
Assuming: timeStep
--> FOAM Warning :
    From simpleFunctionObject::simpleFunctionObject
    in file simpleFunctionObject/simpleFunctionObject.C at line 150
    'outputInterval' not found in pressure
Assuming: 1
--> FOAM Warning :
    From timelineFunctionObject::timelineFunctionObject
    in file timelineFunctionObject/timelineFunctionObject.C at line 94
    No entry 'writeStartTime' in "/foamdata/of2012_projects/hotRoom6E_2/system/controlDict.functions.pressure". Assuming 'no'
--> FOAM Warning :
    From simpleFunctionObject::simpleFunctionObject
    in file simpleFunctionObject/simpleFunctionObject.C at line 141
    'outputControlMode' not found in nut
Assuming: timeStep
--> FOAM Warning :
    From simpleFunctionObject::simpleFunctionObject
    in file simpleFunctionObject/simpleFunctionObject.C at line 150
    'outputInterval' not found in nut
Assuming: 1
--> FOAM Warning :
    From timelineFunctionObject::timelineFunctionObject
    in file timelineFunctionObject/timelineFunctionObject.C at line 94
    No entry 'writeStartTime' in "/foamdata/of2012_projects/hotRoom6E_2/system/controlDict.functions.nut". Assuming 'no'
--> FOAM Warning :
    From simpleFunctionObject::simpleFunctionObject
    in file simpleFunctionObject/simpleFunctionObject.C at line 141
    'outputControlMode' not found in tke
Assuming: timeStep
--> FOAM Warning :
    From simpleFunctionObject::simpleFunctionObject
    in file simpleFunctionObject/simpleFunctionObject.C at line 150
    'outputInterval' not found in tke
Assuming: 1
--> FOAM Warning :
    From timelineFunctionObject::timelineFunctionObject
    in file timelineFunctionObject/timelineFunctionObject.C at line 94
    No entry 'writeStartTime' in "/foamdata/of2012_projects/hotRoom6E_2/system/controlDict.functions.tke". Assuming 'no'
Time = 1

smoothSolver:  Solving for Ux, Initial residual = 1, Final residual = 0.00388951, No Iterations 1
smoothSolver:  Solving for Uy, Initial residual = 1, Final residual = 0.000256063, No Iterations 1
smoothSolver:  Solving for Uz, Initial residual = 0.999947, Final residual = 0.000123349, No Iterations 1
GAMG:  Solving for p, Initial residual = 1, Final residual = 0.069175, No Iterations 4
time step continuity errors : sum local = 0.0187328, global = -0.00103745, cumulative = -0.00103745
smoothSolver:  Solving for epsilon, Initial residual = 0.96513, Final residual = 0.00785559, No Iterations 1
smoothSolver:  Solving for k, Initial residual = 1, Final residual = 0.0527325, No Iterations 2
ExecutionTime = 3.37 s  ClockTime = 4 s

Expression velocity : swak4Foam: Allocating new repository for sampledMeshes
swak4Foam: Allocating new repository for sampledGlobalVariables
 min=-8.8198 weightedQuantile0.1=-6.74278 weightedAverage=-5.71212 weightedQuantile0.9=-1.01489 max=-0.512378
Expression pressure :  min=0.0225905 weightedQuantile0.1=0.22 weightedAverage=1.16917 weightedQuantile0.9=2.09 max=2.59346
Expression nut :  min=0.000262964 weightedQuantile0.1=0.00056755 weightedAverage=0.00517096 weightedQuantile0.9=0.00646375 max=0.00904986
Expression tke :  min=0.0598782 weightedQuantile0.1=0.09856 weightedAverage=0.27504 weightedQuantile0.9=0.313561 max=0.35127
Time = 2

smoothSolver:  Solving for Ux, Initial residual = 0.231122, Final residual = 0.0210815, No Iterations 1
smoothSolver:  Solving for Uy, Initial residual = 0.666079, Final residual = 0.0453375, No Iterations 1
smoothSolver:  Solving for Uz, Initial residual = 0.674319, Final residual = 0.0470788, No Iterations 1
GAMG:  Solving for p, Initial residual = 0.193726, Final residual = 0.0180597, No Iterations 2
time step continuity errors : sum local = 0.0114474, global = -0.00195158, cumulative = -0.00298903
smoothSolver:  Solving for epsilon, Initial residual = 0.68218, Final residual = 0.039317, No Iterations 1
smoothSolver:  Solving for k, Initial residual = 0.500148, Final residual = 0.0160889, No Iterations 2
ExecutionTime = 4.26 s  ClockTime = 5 s

Expression velocity :  min=-8.73905 weightedQuantile0.1=-7.34464 weightedAverage=-6.55957 weightedQuantile0.9=-4.72944 max=-2.28875
Expression pressure :  min=0.157554 weightedQuantile0.1=1.5 weightedAverage=8.5103 weightedQuantile0.9=15.3848 max=19.2621
Expression nut :  min=0.000261846 weightedQuantile0.1=0.00298929 weightedAverage=0.00962614 weightedQuantile0.9=0.0168682 max=0.0323854
Expression tke :  min=0.050145 weightedQuantile0.1=0.100319 weightedAverage=0.209748 weightedQuantile0.9=0.2829 max=0.350324
Time = 3

smoothSolver:  Solving for Ux, Initial residual = 0.309067, Final residual = 0.0131572, No Iterations 2
smoothSolver:  Solving for Uy, Initial residual = 0.567617, Final residual = 0.0562467, No Iterations 1
smoothSolver:  Solving for Uz, Initial residual = 0.680282, Final residual = 0.0366898, No Iterations 1
GAMG:  Solving for p, Initial residual = 0.0290218, Final residual = 0.00212977, No Iterations 3
time step continuity errors : sum local = 0.00505181, global = -0.0015841, cumulative = -0.00457313
smoothSolver:  Solving for epsilon, Initial residual = 0.34278, Final residual = 0.0246433, No Iterations 1
bounding epsilon, min: -0.0150295 max: 14.855 average: 0.35316
smoothSolver:  Solving for k, Initial residual = 0.258127, Final residual = 0.00894588, No Iterations 2
ExecutionTime = 5.18 s  ClockTime = 6 s

Expression velocity :  min=-8.32817 weightedQuantile0.1=-7.25294 weightedAverage=-6.33645 weightedQuantile0.9=-4.77302 max=-2.07778
Expression pressure :  min=-7.34342 weightedQuantile0.1=-6.84098 weightedAverage=-3.92871 weightedQuantile0.9=-0.96 max=-0.0904234
Expression nut :  min=0.000655396 weightedQuantile0.1=0.00434418 weightedAverage=0.0117336 weightedQuantile0.9=0.0175841 max=0.118017
Expression tke :  min=0.0497353 weightedQuantile0.1=0.1085 weightedAverage=0.188664 weightedQuantile0.9=0.251523 max=0.350694
Time = 4

smoothSolver:  Solving for Ux, Initial residual = 0.199061, Final residual = 0.0111128, No Iterations 2
smoothSolver:  Solving for Uy, Initial residual = 0.470042, Final residual = 0.0154814, No Iterations 2
smoothSolver:  Solving for Uz, Initial residual = 0.624605, Final residual = 0.0172981, No Iterations 2
GAMG:  Solving for p, Initial residual = 0.0401939, Final residual = 0.00383046, No Iterations 2
time step continuity errors : sum local = 0.00469004, global = -0.00092094, cumulative = -0.00549407
smoothSolver:  Solving for epsilon, Initial residual = 0.257268, Final residual = 0.00713678, No Iterations 2
smoothSolver:  Solving for k, Initial residual = 0.236574, Final residual = 0.00862265, No Iterations 2
ExecutionTime = 6.08 s  ClockTime = 6 s

Expression velocity :  min=-8.15341 weightedQuantile0.1=-7.42612 weightedAverage=-6.40497 weightedQuantile0.9=-5.02511 max=-2.18429
Expression pressure :  min=-0.975084 weightedQuantile0.1=-0.503544 weightedAverage=0.192111 weightedQuantile0.9=0.578024 max=0.610889
Expression nut :  min=8.76336e-05 weightedQuantile0.1=0.00315806 weightedAverage=0.0122364 weightedQuantile0.9=0.019405 max=0.0271935
Expression tke :  min=0.0302572 weightedQuantile0.1=0.07885 weightedAverage=0.169081 weightedQuantile0.9=0.229944 max=0.348601
Time = 5

smoothSolver:  Solving for Ux, Initial residual = 0.124102, Final residual = 0.00737044, No Iterations 2
smoothSolver:  Solving for Uy, Initial residual = 0.481152, Final residual = 0.0182288, No Iterations 2
smoothSolver:  Solving for Uz, Initial residual = 0.57831, Final residual = 0.017358, No Iterations 2
GAMG:  Solving for p, Initial residual = 0.135527, Final residual = 0.00757696, No Iterations 2
time step continuity errors : sum local = 0.00222502, global = 1.2688e-05, cumulative = -0.00548138
smoothSolver:  Solving for epsilon, Initial residual = 0.279064, Final residual = 0.0150095, No Iterations 1
bounding epsilon, min: -0.112426 max: 14.855 average: 0.246931
smoothSolver:  Solving for k, Initial residual = 0.190253, Final residual = 0.00676351, No Iterations 2
ExecutionTime = 6.97 s  ClockTime = 7 s

Expression velocity :  min=-7.98761 weightedQuantile0.1=-7.47671 weightedAverage=-6.39249 weightedQuantile0.9=-5.06455 max=-2.31791
Expression pressure :  min=-2.00371 weightedQuantile0.1=-1.51833 weightedAverage=-0.493027 weightedQuantile0.9=-0.0904012 max=-0.00526965
Expression nut :  min=0.000629509 weightedQuantile0.1=0.00328353 weightedAverage=0.0139766 weightedQuantile0.9=0.0211188 max=9.62149
Expression tke :  min=0.0302475 weightedQuantile0.1=0.0780845 weightedAverage=0.155166 weightedQuantile0.9=0.209849 max=0.347874
Time = 6

smoothSolver:  Solving for Ux, Initial residual = 0.0933436, Final residual = 0.00693064, No Iterations 2
smoothSolver:  Solving for Uy, Initial residual = 0.33413, Final residual = 0.0202972, No Iterations 2
smoothSolver:  Solving for Uz, Initial residual = 0.369034, Final residual = 0.0146133, No Iterations 2
GAMG:  Solving for p, Initial residual = 0.0980266, Final residual = 0.00429085, No Iterations 2
time step continuity errors : sum local = 0.00141124, global = -0.000183165, cumulative = -0.00566455
smoothSolver:  Solving for epsilon, Initial residual = 0.186611, Final residual = 0.00740765, No Iterations 2
smoothSolver:  Solving for k, Initial residual = 0.172904, Final residual = 0.00590534, No Iterations 2
ExecutionTime = 7.86 s  ClockTime = 8 s

Expression velocity :  min=-7.90787 weightedQuantile0.1=-7.50459 weightedAverage=-6.39092 weightedQuantile0.9=-4.8775 max=-2.40447
Expression pressure :  min=-1.78249 weightedQuantile0.1=-1.30591 weightedAverage=-0.489582 weightedQuantile0.9=-0.0778462 max=-0.00216964
Expression nut :  min=2.35525e-05 weightedQuantile0.1=0.00126667 weightedAverage=0.0126036 weightedQuantile0.9=0.0205557 max=0.0262616
Expression tke :  min=0.0105743 weightedQuantile0.1=0.0626479 weightedAverage=0.139312 weightedQuantile0.9=0.195233 max=0.346227
Time = 7

smoothSolver:  Solving for Ux, Initial residual = 0.0778702, Final residual = 0.00605133, No Iterations 2
smoothSolver:  Solving for Uy, Initial residual = 0.279882, Final residual = 0.0181324, No Iterations 2
smoothSolver:  Solving for Uz, Initial residual = 0.352414, Final residual = 0.0294105, No Iterations 1
GAMG:  Solving for p, Initial residual = 0.0918435, Final residual = 0.00399209, No Iterations 2
time step continuity errors : sum local = 0.00126222, global = -0.000163314, cumulative = -0.00582786
smoothSolver:  Solving for epsilon, Initial residual = 0.23823, Final residual = 0.00942938, No Iterations 1
bounding epsilon, min: -0.0414629 max: 14.855 average: 0.203234
smoothSolver:  Solving for k, Initial residual = 0.140698, Final residual = 0.00526275, No Iterations 2
ExecutionTime = 8.76 s  ClockTime = 9 s

Expression velocity :  min=-7.8916 weightedQuantile0.1=-7.54357 weightedAverage=-6.39031 weightedQuantile0.9=-4.71292 max=-2.46301
Expression pressure :  min=-1.57149 weightedQuantile0.1=-1.125 weightedAverage=-0.486497 weightedQuantile0.9=-0.0654327 max=0.000604776
Expression nut :  min=0.000603604 weightedQuantile0.1=0.00292537 weightedAverage=0.0134643 weightedQuantile0.9=0.0213551 max=0.270688
Expression tke :  min=0.016277 weightedQuantile0.1=0.0575 weightedAverage=0.130473 weightedQuantile0.9=0.1845 max=0.345259
Time = 8

smoothSolver:  Solving for Ux, Initial residual = 0.0627882, Final residual = 0.00488631, No Iterations 2
smoothSolver:  Solving for Uy, Initial residual = 0.25043, Final residual = 0.0184499, No Iterations 2
smoothSolver:  Solving for Uz, Initial residual = 0.443477, Final residual = 0.0141035, No Iterations 2
GAMG:  Solving for p, Initial residual = 0.0836609, Final residual = 0.00351108, No Iterations 2
time step continuity errors : sum local = 0.00102828, global = -8.47081e-05, cumulative = -0.00591257
smoothSolver:  Solving for epsilon, Initial residual = 0.116623, Final residual = 0.00606893, No Iterations 2
smoothSolver:  Solving for k, Initial residual = 0.110918, Final residual = 0.00436731, No Iterations 2
ExecutionTime = 9.65 s  ClockTime = 10 s

Expression velocity :  min=-7.88063 weightedQuantile0.1=-7.587 weightedAverage=-6.39097 weightedQuantile0.9=-4.65208 max=-2.47441
Expression pressure :  min=-1.34977 weightedQuantile0.1=-0.959348 weightedAverage=-0.458052 weightedQuantile0.9=-0.0536325 max=0.00301765
Expression nut :  min=8.3385e-06 weightedQuantile0.1=0.000634043 weightedAverage=0.0131359 weightedQuantile0.9=0.021828 max=0.0280918
Expression tke :  min=0.00570058 weightedQuantile0.1=0.0417561 weightedAverage=0.121272 weightedQuantile0.9=0.180369 max=0.344961
Time = 9

smoothSolver:  Solving for Ux, Initial residual = 0.0514807, Final residual = 0.00378861, No Iterations 2
smoothSolver:  Solving for Uy, Initial residual = 0.244235, Final residual = 0.0190293, No Iterations 2
smoothSolver:  Solving for Uz, Initial residual = 0.475444, Final residual = 0.0170541, No Iterations 2
GAMG:  Solving for p, Initial residual = 0.0778646, Final residual = 0.00282214, No Iterations 2
time step continuity errors : sum local = 0.000784289, global = -5.8021e-05, cumulative = -0.00597059
smoothSolver:  Solving for epsilon, Initial residual = 0.179865, Final residual = 0.00716664, No Iterations 1
bounding epsilon, min: -0.02471 max: 14.855 average: 0.184506
smoothSolver:  Solving for k, Initial residual = 0.0955204, Final residual = 0.00387608, No Iterations 2
ExecutionTime = 10.55 s  ClockTime = 11 s

Expression velocity :  min=-7.8731 weightedQuantile0.1=-7.60095 weightedAverage=-6.39097 weightedQuantile0.9=-4.59919 max=-2.46617
Expression pressure :  min=-1.19556 weightedQuantile0.1=-0.85156 weightedAverage=-0.44525 weightedQuantile0.9=-0.0581365 max=0.00412611
Expression nut :  min=0.000182196 weightedQuantile0.1=0.00302663 weightedAverage=0.0141335 weightedQuantile0.9=0.0257367 max=9.63597
Expression tke :  min=0.0068134 weightedQuantile0.1=0.0398254 weightedAverage=0.115875 weightedQuantile0.9=0.179382 max=0.34448
Time = 10

smoothSolver:  Solving for Ux, Initial residual = 0.0425628, Final residual = 0.0029029, No Iterations 2
smoothSolver:  Solving for Uy, Initial residual = 0.246206, Final residual = 0.021016, No Iterations 2
smoothSolver:  Solving for Uz, Initial residual = 0.410079, Final residual = 0.0155416, No Iterations 2
GAMG:  Solving for p, Initial residual = 0.0730442, Final residual = 0.00264441, No Iterations 2
time step continuity errors : sum local = 0.000692185, global = -5.77406e-05, cumulative = -0.00602833
smoothSolver:  Solving for epsilon, Initial residual = 0.0667199, Final residual = 0.0047071, No Iterations 2
smoothSolver:  Solving for k, Initial residual = 0.0773929, Final residual = 0.00327699, No Iterations 2
ExecutionTime = 11.46 s  ClockTime = 12 s

Expression velocity :  min=-7.86539 weightedQuantile0.1=-7.63197 weightedAverage=-6.39055 weightedQuantile0.9=-4.57432 max=-2.47028
Expression pressure :  min=-1.07409 weightedQuantile0.1=-0.771176 weightedAverage=-0.430057 weightedQuantile0.9=-0.0696857 max=0.00386519
Expression nut :  min=2.88084e-07 weightedQuantile0.1=0.000571341 weightedAverage=0.0135007 weightedQuantile0.9=0.0230714 max=0.0292498
Expression tke :  min=0.000682637 weightedQuantile0.1=0.0287174 weightedAverage=0.109787 weightedQuantile0.9=0.182192 max=0.344402
Time = 11

smoothSolver:  Solving for Ux, Initial residual = 0.0339328, Final residual = 0.00214621, No Iterations 2
smoothSolver:  Solving for Uy, Initial residual = 0.239317, Final residual = 0.0196916, No Iterations 2
smoothSolver:  Solving for Uz, Initial residual = 0.418312, Final residual = 0.0134086, No Iterations 2
GAMG:  Solving for p, Initial residual = 0.0659934, Final residual = 0.00293166, No Iterations 2
time step continuity errors : sum local = 0.000741913, global = -5.6516e-05, cumulative = -0.00608485
smoothSolver:  Solving for epsilon, Initial residual = 0.131189, Final residual = 0.00616585, No Iterations 1
bounding epsilon, min: -0.0288671 max: 14.855 average: 0.176238
smoothSolver:  Solving for k, Initial residual = 0.0709158, Final residual = 0.00295092, No Iterations 2
ExecutionTime = 12.34 s  ClockTime = 13 s

Expression velocity :  min=-7.86515 weightedQuantile0.1=-7.65913 weightedAverage=-6.3907 weightedQuantile0.9=-4.56068 max=-2.46397
Expression pressure :  min=-0.916605 weightedQuantile0.1=-0.6545 weightedAverage=-0.379774 weightedQuantile0.9=-0.078 max=0.00317165
Expression nut :  min=2.57264e-05 weightedQuantile0.1=0.00141247 weightedAverage=0.0139464 weightedQuantile0.9=0.0236406 max=0.733519
Expression tke :  min=0.00162641 weightedQuantile0.1=0.0284316 weightedAverage=0.106376 weightedQuantile0.9=0.183182 max=0.344204
Time = 12

smoothSolver:  Solving for Ux, Initial residual = 0.027613, Final residual = 0.00154421, No Iterations 2
smoothSolver:  Solving for Uy, Initial residual = 0.239312, Final residual = 0.0186004, No Iterations 2
smoothSolver:  Solving for Uz, Initial residual = 0.460309, Final residual = 0.0120722, No Iterations 2
GAMG:  Solving for p, Initial residual = 0.066495, Final residual = 0.00271498, No Iterations 2
time step continuity errors : sum local = 0.000628683, global = -3.37138e-05, cumulative = -0.00611856
smoothSolver:  Solving for epsilon, Initial residual = 0.0598711, Final residual = 0.00315751, No Iterations 2
smoothSolver:  Solving for k, Initial residual = 0.0596852, Final residual = 0.00245975, No Iterations 2
bounding k, min: -0.00571507 max: 0.375 average: 0.102295
ExecutionTime = 13.24 s  ClockTime = 14 s

Expression velocity :  min=-7.86389 weightedQuantile0.1=-7.67007 weightedAverage=-6.39055 weightedQuantile0.9=-4.52688 max=-2.46791
Expression pressure :  min=-0.810188 weightedQuantile0.1=-0.604917 weightedAverage=-0.342787 weightedQuantile0.9=-0.081 max=0.00259412
Expression nut :  min=1.35774e-07 weightedQuantile0.1=0.000465842 weightedAverage=0.0137425 weightedQuantile0.9=0.0241957 max=0.0317582
Expression tke :  min=0.000605594 weightedQuantile0.1=0.0220726 weightedAverage=0.102296 weightedQuantile0.9=0.187821 max=0.344172
Time = 13

smoothSolver:  Solving for Ux, Initial residual = 0.0212366, Final residual = 0.00103536, No Iterations 2
smoothSolver:  Solving for Uy, Initial residual = 0.251773, Final residual = 0.0165695, No Iterations 2
smoothSolver:  Solving for Uz, Initial residual = 0.541098, Final residual = 0.0510173, No Iterations 1
GAMG:  Solving for p, Initial residual = 0.0615427, Final residual = 0.0027545, No Iterations 2
time step continuity errors : sum local = 0.000601268, global = 3.79734e-06, cumulative = -0.00611476
smoothSolver:  Solving for epsilon, Initial residual = 0.110724, Final residual = 0.00557154, No Iterations 1
bounding epsilon, min: -0.0161454 max: 14.855 average: 0.173778
smoothSolver:  Solving for k, Initial residual = 0.0548548, Final residual = 0.00216906, No Iterations 2
ExecutionTime = 14.14 s  ClockTime = 15 s

Expression velocity :  min=-7.86271 weightedQuantile0.1=-7.67982 weightedAverage=-6.39069 weightedQuantile0.9=-4.484 max=-2.46565
Expression pressure :  min=-0.688031 weightedQuantile0.1=-0.525756 weightedAverage=-0.283993 weightedQuantile0.9=-0.068 max=0.00249539
Expression nut :  min=1.88682e-05 weightedQuantile0.1=0.00268745 weightedAverage=0.0141438 weightedQuantile0.9=0.027295 max=1.41557
Expression tke :  min=0.00198325 weightedQuantile0.1=0.021197 weightedAverage=0.0998043 weightedQuantile0.9=0.19063 max=0.343951
Time = 14

smoothSolver:  Solving for Ux, Initial residual = 0.0163775, Final residual = 0.000661918, No Iterations 2
smoothSolver:  Solving for Uy, Initial residual = 0.284451, Final residual = 0.0160282, No Iterations 2
smoothSolver:  Solving for Uz, Initial residual = 0.599948, Final residual = 0.0598227, No Iterations 1
GAMG:  Solving for p, Initial residual = 0.0643556, Final residual = 0.00270988, No Iterations 2
time step continuity errors : sum local = 0.000534824, global = 1.92909e-05, cumulative = -0.00609547
smoothSolver:  Solving for epsilon, Initial residual = 0.0621315, Final residual = 0.00182548, No Iterations 2
smoothSolver:  Solving for k, Initial residual = 0.0454552, Final residual = 0.00171968, No Iterations 2
ExecutionTime = 15.03 s  ClockTime = 15 s

Expression velocity :  min=-7.86209 weightedQuantile0.1=-7.68488 weightedAverage=-6.39063 weightedQuantile0.9=-4.48 max=-2.46577
Expression pressure :  min=-0.603579 weightedQuantile0.1=-0.473161 weightedAverage=-0.239685 weightedQuantile0.9=-0.049 max=0.00593483
Expression nut :  min=4.3002e-06 weightedQuantile0.1=0.00047575 weightedAverage=0.0138601 weightedQuantile0.9=0.0253438 max=0.0326117
Expression tke :  min=0.00146374 weightedQuantile0.1=0.0177135 weightedAverage=0.0970615 weightedQuantile0.9=0.193744 max=0.343914
Time = 15

smoothSolver:  Solving for Ux, Initial residual = 0.0124861, Final residual = 0.00041753, No Iterations 2
smoothSolver:  Solving for Uy, Initial residual = 0.317732, Final residual = 0.0139777, No Iterations 2
smoothSolver:  Solving for Uz, Initial residual = 0.636297, Final residual = 0.054861, No Iterations 1
GAMG:  Solving for p, Initial residual = 0.0603352, Final residual = 0.0024694, No Iterations 2
time step continuity errors : sum local = 0.000453188, global = 1.03019e-05, cumulative = -0.00608517
smoothSolver:  Solving for epsilon, Initial residual = 0.077025, Final residual = 0.0041105, No Iterations 1
bounding epsilon, min: -0.0133268 max: 14.855 average: 0.174747
smoothSolver:  Solving for k, Initial residual = 0.0413079, Final residual = 0.00155308, No Iterations 2
ExecutionTime = 15.91 s  ClockTime = 16 s

Expression velocity :  min=-7.86167 weightedQuantile0.1=-7.6889 weightedAverage=-6.39069 weightedQuantile0.9=-4.51 max=-2.46478
Expression pressure :  min=-0.522291 weightedQuantile0.1=-0.414406 weightedAverage=-0.193932 weightedQuantile0.9=-0.0322261 max=0.010425
Expression nut :  min=0.000122636 weightedQuantile0.1=0.000591556 weightedAverage=0.0139985 weightedQuantile0.9=0.0259547 max=0.0539121
Expression tke :  min=0.00245785 weightedQuantile0.1=0.01669 weightedAverage=0.0950191 weightedQuantile0.9=0.196687 max=0.343756
Time = 16

smoothSolver:  Solving for Ux, Initial residual = 0.00990243, Final residual = 0.000282182, No Iterations 2
smoothSolver:  Solving for Uy, Initial residual = 0.312376, Final residual = 0.0124797, No Iterations 2
smoothSolver:  Solving for Uz, Initial residual = 0.65225, Final residual = 0.0499468, No Iterations 1
GAMG:  Solving for p, Initial residual = 0.0597456, Final residual = 0.00226092, No Iterations 2
time step continuity errors : sum local = 0.000378615, global = -1.24007e-05, cumulative = -0.00609757
smoothSolver:  Solving for epsilon, Initial residual = 0.0537359, Final residual = 0.00487185, No Iterations 1
smoothSolver:  Solving for k, Initial residual = 0.0375805, Final residual = 0.00137882, No Iterations 2
bounding k, min: -0.00253165 max: 0.375 average: 0.0929499
ExecutionTime = 16.79 s  ClockTime = 17 s

Expression velocity :  min=-7.86133 weightedQuantile0.1=-7.69206 weightedAverage=-6.3907 weightedQuantile0.9=-4.54 max=-2.46476
Expression pressure :  min=-0.472746 weightedQuantile0.1=-0.3848 weightedAverage=-0.167231 weightedQuantile0.9=-0.0207 max=0.0122456
Expression nut :  min=3.05179e-07 weightedQuantile0.1=0.000369811 weightedAverage=0.0139467 weightedQuantile0.9=0.0265937 max=0.0334765
Expression tke :  min=0.000421931 weightedQuantile0.1=0.0136473 weightedAverage=0.0929504 weightedQuantile0.9=0.199 max=0.343708
Time = 17

smoothSolver:  Solving for Ux, Initial residual = 0.00806967, Final residual = 0.000228432, No Iterations 2
smoothSolver:  Solving for Uy, Initial residual = 0.29308, Final residual = 0.0100067, No Iterations 2
smoothSolver:  Solving for Uz, Initial residual = 0.679536, Final residual = 0.042251, No Iterations 1
GAMG:  Solving for p, Initial residual = 0.0578892, Final residual = 0.00214864, No Iterations 2
time step continuity errors : sum local = 0.000339235, global = -1.84163e-05, cumulative = -0.00611599
smoothSolver:  Solving for epsilon, Initial residual = 0.073763, Final residual = 0.00454354, No Iterations 1
bounding epsilon, min: -0.0100414 max: 14.855 average: 0.178301
smoothSolver:  Solving for k, Initial residual = 0.0352073, Final residual = 0.00138151, No Iterations 2
ExecutionTime = 17.68 s  ClockTime = 18 s

Expression velocity :  min=-7.86108 weightedQuantile0.1=-7.6955 weightedAverage=-6.39073 weightedQuantile0.9=-4.56 max=-2.4643
Expression pressure :  min=-0.436284 weightedQuantile0.1=-0.36585 weightedAverage=-0.150229 weightedQuantile0.9=-0.0114542 max=0.0127128
Expression nut :  min=9.41804e-07 weightedQuantile0.1=0.000473934 weightedAverage=0.0140166 weightedQuantile0.9=0.0273253 max=0.167751
Expression tke :  min=0.000254311 weightedQuantile0.1=0.0124554 weightedAverage=0.0910337 weightedQuantile0.9=0.201133 max=0.343659
Time = 18

smoothSolver:  Solving for Ux, Initial residual = 0.00680382, Final residual = 0.000181488, No Iterations 2
smoothSolver:  Solving for Uy, Initial residual = 0.277354, Final residual = 0.00792159, No Iterations 2
smoothSolver:  Solving for Uz, Initial residual = 0.700624, Final residual = 0.0380901, No Iterations 1
GAMG:  Solving for p, Initial residual = 0.0583247, Final residual = 0.0019607, No Iterations 2
time step continuity errors : sum local = 0.000292127, global = -2.64786e-05, cumulative = -0.00614246
smoothSolver:  Solving for epsilon, Initial residual = 0.0609378, Final residual = 0.00484444, No Iterations 1
smoothSolver:  Solving for k, Initial residual = 0.0327231, Final residual = 0.00126917, No Iterations 2
bounding k, min: -0.0198916 max: 0.375 average: 0.0898353
ExecutionTime = 18.56 s  ClockTime = 19 s

Expression velocity :  min=-7.86086 weightedQuantile0.1=-7.69671 weightedAverage=-6.3908 weightedQuantile0.9=-4.56 max=-2.46394
Expression pressure :  min=-0.431473 weightedQuantile0.1=-0.363939 weightedAverage=-0.145263 weightedQuantile0.9=-0.00752419 max=0.011586
Expression nut :  min=5.00418e-08 weightedQuantile0.1=0.000429036 weightedAverage=0.0139526 weightedQuantile0.9=0.0280235 max=0.0342126
Expression tke :  min=0.000277877 weightedQuantile0.1=0.0108039 weightedAverage=0.0898391 weightedQuantile0.9=0.202574 max=0.34367
Time = 19

smoothSolver:  Solving for Ux, Initial residual = 0.00578596, Final residual = 0.000575806, No Iterations 1
smoothSolver:  Solving for Uy, Initial residual = 0.264314, Final residual = 0.026322, No Iterations 1
smoothSolver:  Solving for Uz, Initial residual = 0.713016, Final residual = 0.0336291, No Iterations 1
GAMG:  Solving for p, Initial residual = 0.0548761, Final residual = 0.0018684, No Iterations 2
time step continuity errors : sum local = 0.000268676, global = -1.89117e-05, cumulative = -0.00616138
smoothSolver:  Solving for epsilon, Initial residual = 0.0607951, Final residual = 0.00166621, No Iterations 2
smoothSolver:  Solving for k, Initial residual = 0.030124, Final residual = 0.00118374, No Iterations 2
ExecutionTime = 19.44 s  ClockTime = 20 s

Expression velocity :  min=-7.86071 weightedQuantile0.1=-7.69732 weightedAverage=-6.3909 weightedQuantile0.9=-4.56 max=-2.46407
Expression pressure :  min=-0.432483 weightedQuantile0.1=-0.364197 weightedAverage=-0.144386 weightedQuantile0.9=-0.00585817 max=0.0103641
Expression nut :  min=1.56665e-05 weightedQuantile0.1=0.000327986 weightedAverage=0.0138131 weightedQuantile0.9=0.0287603 max=0.0346071
Expression tke :  min=0.000516816 weightedQuantile0.1=0.00984783 weightedAverage=0.0881009 weightedQuantile0.9=0.204452 max=0.343675
Time = 20

smoothSolver:  Solving for Ux, Initial residual = 0.00514648, Final residual = 0.00014567, No Iterations 2
smoothSolver:  Solving for Uy, Initial residual = 0.249186, Final residual = 0.0246759, No Iterations 1
smoothSolver:  Solving for Uz, Initial residual = 0.711733, Final residual = 0.0298194, No Iterations 1
GAMG:  Solving for p, Initial residual = 0.0530113, Final residual = 0.00168588, No Iterations 2
time step continuity errors : sum local = 0.000234701, global = 7.23933e-06, cumulative = -0.00615414
smoothSolver:  Solving for epsilon, Initial residual = 0.0580198, Final residual = 0.00445689, No Iterations 1
bounding epsilon, min: -0.00608144 max: 14.855 average: 0.160115
smoothSolver:  Solving for k, Initial residual = 0.0280874, Final residual = 0.00115199, No Iterations 2
bounding k, min: -0.00707827 max: 0.375 average: 0.0873272
ExecutionTime = 20.32 s  ClockTime = 21 s

Expression velocity :  min=-7.86058 weightedQuantile0.1=-7.6975 weightedAverage=-6.39102 weightedQuantile0.9=-4.55 max=-2.46343
Expression pressure :  min=-0.432078 weightedQuantile0.1=-0.364571 weightedAverage=-0.146822 weightedQuantile0.9=-0.00537011 max=0.00928741
Expression nut :  min=1.11327e-07 weightedQuantile0.1=0.000456902 weightedAverage=0.0138584 weightedQuantile0.9=0.0295536 max=0.035213
Expression tke :  min=0.000141935 weightedQuantile0.1=0.00895536 weightedAverage=0.0873286 weightedQuantile0.9=0.206884 max=0.343641
Time = 21

smoothSolver:  Solving for Ux, Initial residual = 0.00475134, Final residual = 0.000470494, No Iterations 1
smoothSolver:  Solving for Uy, Initial residual = 0.229071, Final residual = 0.00688932, No Iterations 2
smoothSolver:  Solving for Uz, Initial residual = 0.714174, Final residual = 0.0281603, No Iterations 1
GAMG:  Solving for p, Initial residual = 0.0519542, Final residual = 0.00162696, No Iterations 2
time step continuity errors : sum local = 0.000220504, global = 1.22272e-05, cumulative = -0.00614191
smoothSolver:  Solving for epsilon, Initial residual = 0.0439096, Final residual = 0.00177993, No Iterations 2
smoothSolver:  Solving for k, Initial residual = 0.0260188, Final residual = 0.00100511, No Iterations 2
ExecutionTime = 21.2 s  ClockTime = 22 s

Expression velocity :  min=-7.86046 weightedQuantile0.1=-7.69736 weightedAverage=-6.39108 weightedQuantile0.9=-4.55 max=-2.46402
Expression pressure :  min=-0.433855 weightedQuantile0.1=-0.36785 weightedAverage=-0.152996 weightedQuantile0.9=-0.0061828 max=0.00762892
Expression nut :  min=3.43376e-06 weightedQuantile0.1=0.000333696 weightedAverage=0.0137144 weightedQuantile0.9=0.0302736 max=0.035788
Expression tke :  min=0.000251261 weightedQuantile0.1=0.00835214 weightedAverage=0.0858251 weightedQuantile0.9=0.209833 max=0.343641
Time = 22

smoothSolver:  Solving for Ux, Initial residual = 0.0045201, Final residual = 0.000139003, No Iterations 2
smoothSolver:  Solving for Uy, Initial residual = 0.206189, Final residual = 0.0194262, No Iterations 1
smoothSolver:  Solving for Uz, Initial residual = 0.721899, Final residual = 0.0251198, No Iterations 1
GAMG:  Solving for p, Initial residual = 0.0490452, Final residual = 0.00192708, No Iterations 2
time step continuity errors : sum local = 0.00025688, global = 2.56822e-07, cumulative = -0.00614165
smoothSolver:  Solving for epsilon, Initial residual = 0.0528317, Final residual = 0.00386584, No Iterations 1
bounding epsilon, min: -0.00906931 max: 14.855 average: 0.159922
smoothSolver:  Solving for k, Initial residual = 0.0244467, Final residual = 0.000987092, No Iterations 2
ExecutionTime = 22.07 s  ClockTime = 22 s

Expression velocity :  min=-7.86037 weightedQuantile0.1=-7.69784 weightedAverage=-6.39102 weightedQuantile0.9=-4.55 max=-2.46312
Expression pressure :  min=-0.44861 weightedQuantile0.1=-0.38206 weightedAverage=-0.168325 weightedQuantile0.9=-0.0109185 max=0.0056393
Expression nut :  min=1.5519e-07 weightedQuantile0.1=0.00037743 weightedAverage=0.01378 weightedQuantile0.9=0.0309723 max=0.24883
Expression tke :  min=0.000105793 weightedQuantile0.1=0.00791511 weightedAverage=0.085204 weightedQuantile0.9=0.21278 max=0.3436
Time = 23

smoothSolver:  Solving for Ux, Initial residual = 0.00431451, Final residual = 0.000431197, No Iterations 1
smoothSolver:  Solving for Uy, Initial residual = 0.198433, Final residual = 0.0059868, No Iterations 2
smoothSolver:  Solving for Uz, Initial residual = 0.725276, Final residual = 0.0247181, No Iterations 1
GAMG:  Solving for p, Initial residual = 0.0479549, Final residual = 0.00150319, No Iterations 2
time step continuity errors : sum local = 0.000200088, global = 8.95106e-06, cumulative = -0.0061327
smoothSolver:  Solving for epsilon, Initial residual = 0.0371764, Final residual = 0.00152961, No Iterations 2
smoothSolver:  Solving for k, Initial residual = 0.0230249, Final residual = 0.00084101, No Iterations 2
ExecutionTime = 22.95 s  ClockTime = 23 s

Expression velocity :  min=-7.8603 weightedQuantile0.1=-7.69805 weightedAverage=-6.39104 weightedQuantile0.9=-4.55 max=-2.46401
Expression pressure :  min=-0.452169 weightedQuantile0.1=-0.386901 weightedAverage=-0.175254 weightedQuantile0.9=-0.0111031 max=0.00474357
Expression nut :  min=2.19993e-05 weightedQuantile0.1=0.000352642 weightedAverage=0.0135633 weightedQuantile0.9=0.0316372 max=0.0387343
Expression tke :  min=0.000341567 weightedQuantile0.1=0.00736328 weightedAverage=0.0838881 weightedQuantile0.9=0.216694 max=0.343611
Time = 24

smoothSolver:  Solving for Ux, Initial residual = 0.00410017, Final residual = 0.000136302, No Iterations 2
smoothSolver:  Solving for Uy, Initial residual = 0.184155, Final residual = 0.0164646, No Iterations 1
smoothSolver:  Solving for Uz, Initial residual = 0.725616, Final residual = 0.0214429, No Iterations 1
GAMG:  Solving for p, Initial residual = 0.0443244, Final residual = 0.00167069, No Iterations 2
time step continuity errors : sum local = 0.000220805, global = 3.29717e-06, cumulative = -0.0061294
smoothSolver:  Solving for epsilon, Initial residual = 0.0478728, Final residual = 0.00299126, No Iterations 1
bounding epsilon, min: -0.00706256 max: 14.855 average: 0.161636
smoothSolver:  Solving for k, Initial residual = 0.0215906, Final residual = 0.00082697, No Iterations 2
ExecutionTime = 23.82 s  ClockTime = 24 s

Expression velocity :  min=-7.86025 weightedQuantile0.1=-7.69818 weightedAverage=-6.39097 weightedQuantile0.9=-4.55 max=-2.46295
Expression pressure :  min=-0.458838 weightedQuantile0.1=-0.395909 weightedAverage=-0.187541 weightedQuantile0.9=-0.0136154 max=0.0035532
Expression nut :  min=6.49982e-06 weightedQuantile0.1=0.00198985 weightedAverage=0.0137421 weightedQuantile0.9=0.0333566 max=3.31174
Expression tke :  min=0.000432675 weightedQuantile0.1=0.00705521 weightedAverage=0.0832772 weightedQuantile0.9=0.220841 max=0.343588
Time = 25

smoothSolver:  Solving for Ux, Initial residual = 0.00430137, Final residual = 0.000139923, No Iterations 2
smoothSolver:  Solving for Uy, Initial residual = 0.195272, Final residual = 0.00795423, No Iterations 2
smoothSolver:  Solving for Uz, Initial residual = 0.725105, Final residual = 0.0210162, No Iterations 1
GAMG:  Solving for p, Initial residual = 0.0495049, Final residual = 0.00139056, No Iterations 2
time step continuity errors : sum local = 0.000184056, global = 7.20334e-06, cumulative = -0.0061222
smoothSolver:  Solving for epsilon, Initial residual = 0.0312157, Final residual = 0.00106376, No Iterations 2
bounding epsilon, min: -6.78868e-05 max: 14.855 average: 0.17045
smoothSolver:  Solving for k, Initial residual = 0.0207927, Final residual = 0.000729739, No Iterations 2
bounding k, min: -0.00313001 max: 0.375 average: 0.0821601
ExecutionTime = 24.72 s  ClockTime = 25 s

Expression velocity :  min=-7.8602 weightedQuantile0.1=-7.69834 weightedAverage=-6.39098 weightedQuantile0.9=-4.55 max=-2.46391
Expression pressure :  min=-0.460091 weightedQuantile0.1=-0.401826 weightedAverage=-0.1953 weightedQuantile0.9=-0.015 max=0.00319488
Expression nut :  min=5.02946e-06 weightedQuantile0.1=0.000364626 weightedAverage=0.0133683 weightedQuantile0.9=0.032728 max=0.0414043
Expression tke :  min=0.000837882 weightedQuantile0.1=0.00671405 weightedAverage=0.0821613 weightedQuantile0.9=0.225082 max=0.343587
Time = 26

smoothSolver:  Solving for Ux, Initial residual = 0.00387414, Final residual = 0.000363618, No Iterations 1
smoothSolver:  Solving for Uy, Initial residual = 0.186745, Final residual = 0.0151508, No Iterations 1
smoothSolver:  Solving for Uz, Initial residual = 0.723178, Final residual = 0.0208927, No Iterations 1
GAMG:  Solving for p, Initial residual = 0.0429974, Final residual = 0.00132439, No Iterations 2
time step continuity errors : sum local = 0.000175915, global = 4.95231e-06, cumulative = -0.00611725
smoothSolver:  Solving for epsilon, Initial residual = 0.041587, Final residual = 0.00218403, No Iterations 1
bounding epsilon, min: -0.00516198 max: 14.855 average: 0.164124
smoothSolver:  Solving for k, Initial residual = 0.0194175, Final residual = 0.000728015, No Iterations 2
ExecutionTime = 25.61 s  ClockTime = 26 s

Expression velocity :  min=-7.86017 weightedQuantile0.1=-7.69837 weightedAverage=-6.39092 weightedQuantile0.9=-4.54 max=-2.46287
Expression pressure :  min=-0.463073 weightedQuantile0.1=-0.405299 weightedAverage=-0.202517 weightedQuantile0.9=-0.0162581 max=0.00295647
Expression nut :  min=3.35674e-05 weightedQuantile0.1=0.000408218 weightedAverage=0.013311 weightedQuantile0.9=0.0331379 max=0.0428891
Expression tke :  min=0.00103545 weightedQuantile0.1=0.0065 weightedAverage=0.0813846 weightedQuantile0.9=0.229423 max=0.343581
Time = 27

smoothSolver:  Solving for Ux, Initial residual = 0.00357413, Final residual = 0.000121082, No Iterations 2
smoothSolver:  Solving for Uy, Initial residual = 0.164321, Final residual = 0.0147136, No Iterations 1
smoothSolver:  Solving for Uz, Initial residual = 0.703597, Final residual = 0.0184041, No Iterations 1
GAMG:  Solving for p, Initial residual = 0.0408938, Final residual = 0.00122408, No Iterations 2
time step continuity errors : sum local = 0.000161156, global = 4.14551e-06, cumulative = -0.0061131
smoothSolver:  Solving for epsilon, Initial residual = 0.0264731, Final residual = 0.000754887, No Iterations 2
bounding epsilon, min: -3.54149e-05 max: 14.855 average: 0.167241
smoothSolver:  Solving for k, Initial residual = 0.0189318, Final residual = 0.000638098, No Iterations 2
bounding k, min: -0.00523584 max: 0.375 average: 0.0803621
ExecutionTime = 26.51 s  ClockTime = 27 s

Expression velocity :  min=-7.86013 weightedQuantile0.1=-7.69844 weightedAverage=-6.39091 weightedQuantile0.9=-4.54 max=-2.4637
Expression pressure :  min=-0.465139 weightedQuantile0.1=-0.41018 weightedAverage=-0.20953 weightedQuantile0.9=-0.0182101 max=0.00260436
Expression nut :  min=7.48839e-07 weightedQuantile0.1=0.000358494 weightedAverage=0.0130661 weightedQuantile0.9=0.0334622 max=0.0447831
Expression tke :  min=0.000518779 weightedQuantile0.1=0.00621767 weightedAverage=0.0803627 weightedQuantile0.9=0.231727 max=0.343574
Time = 28

smoothSolver:  Solving for Ux, Initial residual = 0.00337628, Final residual = 0.000123797, No Iterations 2
smoothSolver:  Solving for Uy, Initial residual = 0.144228, Final residual = 0.00475143, No Iterations 2
smoothSolver:  Solving for Uz, Initial residual = 0.704518, Final residual = 0.0168743, No Iterations 1
GAMG:  Solving for p, Initial residual = 0.0375935, Final residual = 0.00120142, No Iterations 2
time step continuity errors : sum local = 0.000157794, global = 2.45302e-06, cumulative = -0.00611065
smoothSolver:  Solving for epsilon, Initial residual = 0.0352809, Final residual = 0.00220432, No Iterations 1
bounding epsilon, min: -0.00641886 max: 14.855 average: 0.166581
smoothSolver:  Solving for k, Initial residual = 0.0184875, Final residual = 0.000708353, No Iterations 2
ExecutionTime = 27.4 s  ClockTime = 28 s

Expression velocity :  min=-7.86012 weightedQuantile0.1=-7.69862 weightedAverage=-6.39085 weightedQuantile0.9=-4.53 max=-2.46279
Expression pressure :  min=-0.462465 weightedQuantile0.1=-0.410637 weightedAverage=-0.215455 weightedQuantile0.9=-0.0202946 max=0.00243785
Expression nut :  min=8.39938e-06 weightedQuantile0.1=0.000350705 weightedAverage=0.0129569 weightedQuantile0.9=0.0337724 max=0.0459997
Expression tke :  min=0.000549756 weightedQuantile0.1=0.00599156 weightedAverage=0.0794153 weightedQuantile0.9=0.232667 max=0.343578
Time = 29

smoothSolver:  Solving for Ux, Initial residual = 0.00313746, Final residual = 0.000120105, No Iterations 2
smoothSolver:  Solving for Uy, Initial residual = 0.128245, Final residual = 0.00442298, No Iterations 2
smoothSolver:  Solving for Uz, Initial residual = 0.706614, Final residual = 0.0174071, No Iterations 1
GAMG:  Solving for p, Initial residual = 0.0362023, Final residual = 0.00109607, No Iterations 2
time step continuity errors : sum local = 0.000142591, global = 2.25858e-06, cumulative = -0.00610839
smoothSolver:  Solving for epsilon, Initial residual = 0.0255771, Final residual = 0.000741863, No Iterations 2
smoothSolver:  Solving for k, Initial residual = 0.0178855, Final residual = 0.000613082, No Iterations 2
ExecutionTime = 28.28 s  ClockTime = 29 s

Expression velocity :  min=-7.8601 weightedQuantile0.1=-7.69875 weightedAverage=-6.39085 weightedQuantile0.9=-4.53 max=-2.46357
Expression pressure :  min=-0.460617 weightedQuantile0.1=-0.412677 weightedAverage=-0.221281 weightedQuantile0.9=-0.022459 max=0.0022792
Expression nut :  min=1.7316e-05 weightedQuantile0.1=0.000350652 weightedAverage=0.0126948 weightedQuantile0.9=0.03404 max=0.0472907
Expression tke :  min=0.00116008 weightedQuantile0.1=0.00580964 weightedAverage=0.0784805 weightedQuantile0.9=0.232333 max=0.343569
Time = 30

smoothSolver:  Solving for Ux, Initial residual = 0.00298817, Final residual = 0.000127348, No Iterations 2
smoothSolver:  Solving for Uy, Initial residual = 0.113192, Final residual = 0.00389512, No Iterations 2
smoothSolver:  Solving for Uz, Initial residual = 0.710869, Final residual = 0.0167147, No Iterations 1
GAMG:  Solving for p, Initial residual = 0.0333844, Final residual = 0.00107706, No Iterations 2
time step continuity errors : sum local = 0.000139608, global = -1.80438e-07, cumulative = -0.00610857
smoothSolver:  Solving for epsilon, Initial residual = 0.0302183, Final residual = 0.00265419, No Iterations 1
bounding epsilon, min: -0.00266246 max: 14.855 average: 0.167838
smoothSolver:  Solving for k, Initial residual = 0.0176096, Final residual = 0.000662593, No Iterations 2
ExecutionTime = 29.17 s  ClockTime = 30 s

Expression velocity :  min=-7.86009 weightedQuantile0.1=-7.69902 weightedAverage=-6.39081 weightedQuantile0.9=-4.52 max=-2.46287
Expression pressure :  min=-0.455252 weightedQuantile0.1=-0.411899 weightedAverage=-0.226201 weightedQuantile0.9=-0.02518 max=0.00209577
Expression nut :  min=6.54711e-05 weightedQuantile0.1=0.0100005 weightedAverage=0.0136675 weightedQuantile0.9=0.0900045 max=22.5129
Expression tke :  min=0.00141753 weightedQuantile0.1=0.0056342 weightedAverage=0.0773707 weightedQuantile0.9=0.234222 max=0.343573
Time = 31

smoothSolver:  Solving for Ux, Initial residual = 0.00798796, Final residual = 0.000314899, No Iterations 2
smoothSolver:  Solving for Uy, Initial residual = 0.306144, Final residual = 0.0193482, No Iterations 2
smoothSolver:  Solving for Uz, Initial residual = 0.715263, Final residual = 0.0184271, No Iterations 1
GAMG:  Solving for p, Initial residual = 0.0551392, Final residual = 0.00118729, No Iterations 2
time step continuity errors : sum local = 0.000155267, global = 1.81001e-05, cumulative = -0.00609047
smoothSolver:  Solving for epsilon, Initial residual = 0.0266952, Final residual = 0.000684944, No Iterations 2
smoothSolver:  Solving for k, Initial residual = 0.0186266, Final residual = 0.00143929, No Iterations 2
bounding k, min: -0.00797421 max: 0.375 average: 0.076506
ExecutionTime = 30.06 s  ClockTime = 31 s

Expression velocity :  min=-7.86007 weightedQuantile0.1=-7.69928 weightedAverage=-6.39089 weightedQuantile0.9=-4.52 max=-2.46342
Expression pressure :  min=-0.479062 weightedQuantile0.1=-0.412646 weightedAverage=-0.228439 weightedQuantile0.9=-0.0260152 max=0.00213339
Expression nut :  min=1.77455e-05 weightedQuantile0.1=0.000330249 weightedAverage=0.012283 weightedQuantile0.9=0.034504 max=0.0567904
Expression tke :  min=0.00149913 weightedQuantile0.1=0.00546231 weightedAverage=0.0765102 weightedQuantile0.9=0.235719 max=0.343568
Time = 32

smoothSolver:  Solving for Ux, Initial residual = 0.00340464, Final residual = 0.000151208, No Iterations 2
smoothSolver:  Solving for Uy, Initial residual = 0.23352, Final residual = 0.0184739, No Iterations 1
smoothSolver:  Solving for Uz, Initial residual = 0.6646, Final residual = 0.0321783, No Iterations 1
GAMG:  Solving for p, Initial residual = 0.0470604, Final residual = 0.00112684, No Iterations 2
time step continuity errors : sum local = 0.000150136, global = -1.9532e-06, cumulative = -0.00609243
smoothSolver:  Solving for epsilon, Initial residual = 0.0253532, Final residual = 0.00056352, No Iterations 2
smoothSolver:  Solving for k, Initial residual = 0.0162308, Final residual = 0.00055835, No Iterations 2
ExecutionTime = 30.93 s  ClockTime = 31 s

Expression velocity :  min=-7.86007 weightedQuantile0.1=-7.69932 weightedAverage=-6.39079 weightedQuantile0.9=-4.5 max=-2.46294
Expression pressure :  min=-0.481753 weightedQuantile0.1=-0.413463 weightedAverage=-0.234655 weightedQuantile0.9=-0.031 max=0.00176932
Expression nut :  min=9.046e-05 weightedQuantile0.1=0.000305819 weightedAverage=0.0119947 weightedQuantile0.9=0.034515 max=0.0495862
Expression tke :  min=0.00152822 weightedQuantile0.1=0.00527058 weightedAverage=0.0753897 weightedQuantile0.9=0.238417 max=0.343568
Time = 33

smoothSolver:  Solving for Ux, Initial residual = 0.00302308, Final residual = 0.000154257, No Iterations 2
smoothSolver:  Solving for Uy, Initial residual = 0.159563, Final residual = 0.0133146, No Iterations 1
smoothSolver:  Solving for Uz, Initial residual = 0.611067, Final residual = 0.0202551, No Iterations 1
GAMG:  Solving for p, Initial residual = 0.0383719, Final residual = 0.000894726, No Iterations 2
time step continuity errors : sum local = 0.000120427, global = 8.29816e-07, cumulative = -0.0060916
smoothSolver:  Solving for epsilon, Initial residual = 0.0201318, Final residual = 0.000384261, No Iterations 2
smoothSolver:  Solving for k, Initial residual = 0.0158579, Final residual = 0.000537854, No Iterations 2
ExecutionTime = 31.8 s  ClockTime = 32 s

Expression velocity :  min=-7.86005 weightedQuantile0.1=-7.69952 weightedAverage=-6.39075 weightedQuantile0.9=-4.48 max=-2.46324
Expression pressure :  min=-0.47616 weightedQuantile0.1=-0.413202 weightedAverage=-0.23852 weightedQuantile0.9=-0.033 max=0.00173502
Expression nut :  min=2.19355e-05 weightedQuantile0.1=0.000315063 weightedAverage=0.011709 weightedQuantile0.9=0.0344476 max=0.0495899
Expression tke :  min=0.00157162 weightedQuantile0.1=0.00507859 weightedAverage=0.0743558 weightedQuantile0.9=0.238952 max=0.34357
Time = 34

smoothSolver:  Solving for Ux, Initial residual = 0.00286746, Final residual = 0.00015323, No Iterations 2
smoothSolver:  Solving for Uy, Initial residual = 0.139411, Final residual = 0.0125582, No Iterations 1
smoothSolver:  Solving for Uz, Initial residual = 0.629338, Final residual = 0.022381, No Iterations 1
GAMG:  Solving for p, Initial residual = 0.034964, Final residual = 0.000788766, No Iterations 2
time step continuity errors : sum local = 0.000105826, global = 7.80403e-07, cumulative = -0.00609081
smoothSolver:  Solving for epsilon, Initial residual = 0.0185988, Final residual = 0.000395505, No Iterations 2
smoothSolver:  Solving for k, Initial residual = 0.0153858, Final residual = 0.000527371, No Iterations 2
ExecutionTime = 32.67 s  ClockTime = 33 s

Expression velocity :  min=-7.86005 weightedQuantile0.1=-7.69984 weightedAverage=-6.39079 weightedQuantile0.9=-4.47 max=-2.46315
Expression pressure :  min=-0.465958 weightedQuantile0.1=-0.40747 weightedAverage=-0.239403 weightedQuantile0.9=-0.035 max=0.00184576
Expression nut :  min=5.02381e-05 weightedQuantile0.1=0.000286016 weightedAverage=0.0114221 weightedQuantile0.9=0.0342812 max=0.0503494
Expression tke :  min=0.00155465 weightedQuantile0.1=0.00487987 weightedAverage=0.0731723 weightedQuantile0.9=0.2392 max=0.343568
Time = 35

smoothSolver:  Solving for Ux, Initial residual = 0.00275423, Final residual = 0.000154262, No Iterations 2
smoothSolver:  Solving for Uy, Initial residual = 0.13263, Final residual = 0.0119176, No Iterations 1
smoothSolver:  Solving for Uz, Initial residual = 0.646125, Final residual = 0.0237129, No Iterations 1
GAMG:  Solving for p, Initial residual = 0.033986, Final residual = 0.000759642, No Iterations 2
time step continuity errors : sum local = 0.000100207, global = -3.15038e-07, cumulative = -0.00609113
smoothSolver:  Solving for epsilon, Initial residual = 0.0167901, Final residual = 0.00150562, No Iterations 1
bounding epsilon, min: -0.000604676 max: 14.855 average: 0.161576
smoothSolver:  Solving for k, Initial residual = 0.0152966, Final residual = 0.000525027, No Iterations 2
ExecutionTime = 33.54 s  ClockTime = 34 s

Expression velocity :  min=-7.86003 weightedQuantile0.1=-7.7 weightedAverage=-6.39077 weightedQuantile0.9=-4.48 max=-2.46299
Expression pressure :  min=-0.463681 weightedQuantile0.1=-0.40824 weightedAverage=-0.243467 weightedQuantile0.9=-0.037 max=0.0019246
Expression nut :  min=2.56191e-05 weightedQuantile0.1=0.000313675 weightedAverage=0.0112152 weightedQuantile0.9=0.03415 max=0.0508732
Expression tke :  min=0.00159073 weightedQuantile0.1=0.00467124 weightedAverage=0.072081 weightedQuantile0.9=0.2366 max=0.343571
Time = 36

smoothSolver:  Solving for Ux, Initial residual = 0.00257896, Final residual = 0.000149155, No Iterations 2
smoothSolver:  Solving for Uy, Initial residual = 0.122565, Final residual = 0.0116001, No Iterations 1
smoothSolver:  Solving for Uz, Initial residual = 0.643341, Final residual = 0.0235476, No Iterations 1
GAMG:  Solving for p, Initial residual = 0.0320327, Final residual = 0.000684536, No Iterations 2
time step continuity errors : sum local = 8.9226e-05, global = 1.59298e-06, cumulative = -0.00608954
smoothSolver:  Solving for epsilon, Initial residual = 0.0171417, Final residual = 0.000407793, No Iterations 2
smoothSolver:  Solving for k, Initial residual = 0.0148072, Final residual = 0.000496688, No Iterations 2
ExecutionTime = 34.41 s  ClockTime = 35 s

Expression velocity :  min=-7.86003 weightedQuantile0.1=-7.7 weightedAverage=-6.3908 weightedQuantile0.9=-4.48 max=-2.46345
Expression pressure :  min=-0.45651 weightedQuantile0.1=-0.403987 weightedAverage=-0.244194 weightedQuantile0.9=-0.038 max=0.00208766
Expression nut :  min=3.00173e-05 weightedQuantile0.1=0.000294239 weightedAverage=0.0108977 weightedQuantile0.9=0.0339667 max=0.0513973
Expression tke :  min=0.00157112 weightedQuantile0.1=0.00448329 weightedAverage=0.070871 weightedQuantile0.9=0.235727 max=0.343568
Time = 37

smoothSolver:  Solving for Ux, Initial residual = 0.00248146, Final residual = 0.000147345, No Iterations 2
smoothSolver:  Solving for Uy, Initial residual = 0.112015, Final residual = 0.0105325, No Iterations 1
smoothSolver:  Solving for Uz, Initial residual = 0.631157, Final residual = 0.0229747, No Iterations 1
GAMG:  Solving for p, Initial residual = 0.0302617, Final residual = 0.000668259, No Iterations 2
time step continuity errors : sum local = 8.5818e-05, global = -3.93094e-07, cumulative = -0.00608993
smoothSolver:  Solving for epsilon, Initial residual = 0.0164411, Final residual = 0.00134044, No Iterations 1
bounding epsilon, min: -0.00307217 max: 14.855 average: 0.161032
smoothSolver:  Solving for k, Initial residual = 0.0145742, Final residual = 0.000504048, No Iterations 2
ExecutionTime = 35.28 s  ClockTime = 36 s

Expression velocity :  min=-7.86002 weightedQuantile0.1=-7.7 weightedAverage=-6.39076 weightedQuantile0.9=-4.49 max=-2.46284
Expression pressure :  min=-0.45451 weightedQuantile0.1=-0.40521 weightedAverage=-0.247804 weightedQuantile0.9=-0.039 max=0.0021787
Expression nut :  min=2.83096e-05 weightedQuantile0.1=0.0002867 weightedAverage=0.0106751 weightedQuantile0.9=0.0337722 max=0.0580266
Expression tke :  min=0.00159607 weightedQuantile0.1=0.00429979 weightedAverage=0.0697409 weightedQuantile0.9=0.2331 max=0.343569
Time = 38

smoothSolver:  Solving for Ux, Initial residual = 0.00236045, Final residual = 0.000140893, No Iterations 2
smoothSolver:  Solving for Uy, Initial residual = 0.102986, Final residual = 0.00365244, No Iterations 2
smoothSolver:  Solving for Uz, Initial residual = 0.639384, Final residual = 0.0233683, No Iterations 1
GAMG:  Solving for p, Initial residual = 0.029525, Final residual = 0.000597809, No Iterations 2
time step continuity errors : sum local = 7.60687e-05, global = 5.60837e-07, cumulative = -0.00608937
smoothSolver:  Solving for epsilon, Initial residual = 0.01449, Final residual = 0.000422533, No Iterations 2
smoothSolver:  Solving for k, Initial residual = 0.0142888, Final residual = 0.000475194, No Iterations 2
ExecutionTime = 36.17 s  ClockTime = 37 s

Expression velocity :  min=-7.86002 weightedQuantile0.1=-7.7 weightedAverage=-6.39078 weightedQuantile0.9=-4.49 max=-2.4636
Expression pressure :  min=-0.447631 weightedQuantile0.1=-0.40204 weightedAverage=-0.248351 weightedQuantile0.9=-0.039 max=0.00243913
Expression nut :  min=1.70486e-05 weightedQuantile0.1=0.000277318 weightedAverage=0.010341 weightedQuantile0.9=0.0333333 max=0.0521403
Expression tke :  min=0.00161557 weightedQuantile0.1=0.00416878 weightedAverage=0.068498 weightedQuantile0.9=0.229935 max=0.343567
Time = 39

smoothSolver:  Solving for Ux, Initial residual = 0.00229162, Final residual = 0.000140123, No Iterations 2
smoothSolver:  Solving for Uy, Initial residual = 0.0914881, Final residual = 0.00881324, No Iterations 1
smoothSolver:  Solving for Uz, Initial residual = 0.649634, Final residual = 0.0233349, No Iterations 1
GAMG:  Solving for p, Initial residual = 0.026844, Final residual = 0.000595889, No Iterations 2
time step continuity errors : sum local = 7.5044e-05, global = -5.48469e-07, cumulative = -0.00608992
smoothSolver:  Solving for epsilon, Initial residual = 0.0161383, Final residual = 0.00125998, No Iterations 1
bounding epsilon, min: -0.0102594 max: 14.855 average: 0.160272
smoothSolver:  Solving for k, Initial residual = 0.0140966, Final residual = 0.000486063, No Iterations 2
ExecutionTime = 37.04 s  ClockTime = 38 s

Expression velocity :  min=-7.86002 weightedQuantile0.1=-7.7 weightedAverage=-6.39074 weightedQuantile0.9=-4.48 max=-2.46291
Expression pressure :  min=-0.444047 weightedQuantile0.1=-0.401954 weightedAverage=-0.25082 weightedQuantile0.9=-0.04 max=0.002494
Expression nut :  min=5.15349e-05 weightedQuantile0.1=0.000268761 weightedAverage=0.0101035 weightedQuantile0.9=0.0330583 max=0.0522945
Expression tke :  min=0.00165606 weightedQuantile0.1=0.00405054 weightedAverage=0.0673201 weightedQuantile0.9=0.228769 max=0.343566
Time = 40

smoothSolver:  Solving for Ux, Initial residual = 0.00219118, Final residual = 0.000136288, No Iterations 2
smoothSolver:  Solving for Uy, Initial residual = 0.0835271, Final residual = 0.00326536, No Iterations 2
smoothSolver:  Solving for Uz, Initial residual = 0.652753, Final residual = 0.0227719, No Iterations 1
GAMG:  Solving for p, Initial residual = 0.0262136, Final residual = 0.000556248, No Iterations 2
time step continuity errors : sum local = 6.94777e-05, global = -9.70277e-07, cumulative = -0.00609089
smoothSolver:  Solving for epsilon, Initial residual = 0.0129836, Final residual = 0.000401658, No Iterations 2
smoothSolver:  Solving for k, Initial residual = 0.0139422, Final residual = 0.000458788, No Iterations 2
ExecutionTime = 37.94 s  ClockTime = 38 s

Expression velocity :  min=-7.86002 weightedQuantile0.1=-7.7 weightedAverage=-6.39076 weightedQuantile0.9=-4.47 max=-2.46366
Expression pressure :  min=-0.437409 weightedQuantile0.1=-0.399049 weightedAverage=-0.251295 weightedQuantile0.9=-0.041 max=0.0026591
Expression nut :  min=2.18912e-05 weightedQuantile0.1=0.000266413 weightedAverage=0.00976392 weightedQuantile0.9=0.0325083 max=0.0525682
Expression tke :  min=0.00166306 weightedQuantile0.1=0.00387985 weightedAverage=0.0660498 weightedQuantile0.9=0.223273 max=0.344025
Time = 41

smoothSolver:  Solving for Ux, Initial residual = 0.00215025, Final residual = 0.000139877, No Iterations 2
smoothSolver:  Solving for Uy, Initial residual = 0.0732232, Final residual = 0.00291096, No Iterations 2
smoothSolver:  Solving for Uz, Initial residual = 0.651418, Final residual = 0.0221872, No Iterations 1
GAMG:  Solving for p, Initial residual = 0.0242605, Final residual = 0.000538994, No Iterations 2
time step continuity errors : sum local = 6.68547e-05, global = 3.47125e-07, cumulative = -0.00609054
smoothSolver:  Solving for epsilon, Initial residual = 0.0154379, Final residual = 0.00114048, No Iterations 1
bounding epsilon, min: -0.00388829 max: 14.855 average: 0.159029
smoothSolver:  Solving for k, Initial residual = 0.0137795, Final residual = 0.00047795, No Iterations 2
ExecutionTime = 38.82 s  ClockTime = 39 s

Expression velocity :  min=-7.86002 weightedQuantile0.1=-7.71 weightedAverage=-6.39075 weightedQuantile0.9=-4.47 max=-2.46289
Expression pressure :  min=-0.431111 weightedQuantile0.1=-0.396519 weightedAverage=-0.252062 weightedQuantile0.9=-0.042 max=0.0027313
Expression nut :  min=0.000143101 weightedQuantile0.1=0.000258225 weightedAverage=0.00952195 weightedQuantile0.9=0.0322 max=0.0528885
Expression tke :  min=0.00166506 weightedQuantile0.1=0.00368382 weightedAverage=0.0648551 weightedQuantile0.9=0.220679 max=0.344317
Time = 42

smoothSolver:  Solving for Ux, Initial residual = 0.0020718, Final residual = 0.000136281, No Iterations 2
smoothSolver:  Solving for Uy, Initial residual = 0.0691918, Final residual = 0.00281452, No Iterations 2
smoothSolver:  Solving for Uz, Initial residual = 0.649831, Final residual = 0.0220929, No Iterations 1
GAMG:  Solving for p, Initial residual = 0.0233119, Final residual = 0.000489018, No Iterations 2
time step continuity errors : sum local = 6.00816e-05, global = 4.00964e-07, cumulative = -0.00609014
smoothSolver:  Solving for epsilon, Initial residual = 0.0116519, Final residual = 0.000368522, No Iterations 2
smoothSolver:  Solving for k, Initial residual = 0.0137752, Final residual = 0.000446443, No Iterations 2
ExecutionTime = 39.7 s  ClockTime = 40 s

Expression velocity :  min=-7.86001 weightedQuantile0.1=-7.71 weightedAverage=-6.39077 weightedQuantile0.9=-4.46 max=-2.46364
Expression pressure :  min=-0.425871 weightedQuantile0.1=-0.39438 weightedAverage=-0.252747 weightedQuantile0.9=-0.042 max=0.00276365
Expression nut :  min=2.36395e-05 weightedQuantile0.1=0.000255109 weightedAverage=0.00917212 weightedQuantile0.9=0.0314467 max=0.0526729
Expression tke :  min=0.00170304 weightedQuantile0.1=0.00351337 weightedAverage=0.0635465 weightedQuantile0.9=0.217429 max=0.344751
Time = 43

smoothSolver:  Solving for Ux, Initial residual = 0.00204161, Final residual = 0.000138613, No Iterations 2
smoothSolver:  Solving for Uy, Initial residual = 0.0664025, Final residual = 0.00268276, No Iterations 2
smoothSolver:  Solving for Uz, Initial residual = 0.64413, Final residual = 0.0211696, No Iterations 1
GAMG:  Solving for p, Initial residual = 0.0216653, Final residual = 0.000511672, No Iterations 2
time step continuity errors : sum local = 6.2577e-05, global = -3.11711e-06, cumulative = -0.00609326
smoothSolver:  Solving for epsilon, Initial residual = 0.0153181, Final residual = 0.00105552, No Iterations 1
bounding epsilon, min: -0.00240038 max: 14.855 average: 0.15772
smoothSolver:  Solving for k, Initial residual = 0.0136809, Final residual = 0.00047271, No Iterations 2
ExecutionTime = 40.58 s  ClockTime = 41 s

Expression velocity :  min=-7.86002 weightedQuantile0.1=-7.71 weightedAverage=-6.39074 weightedQuantile0.9=-4.46 max=-2.46288
Expression pressure :  min=-0.419225 weightedQuantile0.1=-0.390996 weightedAverage=-0.253389 weightedQuantile0.9=-0.044 max=0.00272463
Expression nut :  min=0.000112207 weightedQuantile0.1=0.000248327 weightedAverage=0.00893096 weightedQuantile0.9=0.0307412 max=0.0526264
Expression tke :  min=0.00171019 weightedQuantile0.1=0.00339479 weightedAverage=0.0623321 weightedQuantile0.9=0.211125 max=0.345224
Time = 44

smoothSolver:  Solving for Ux, Initial residual = 0.00199321, Final residual = 0.000133779, No Iterations 2
smoothSolver:  Solving for Uy, Initial residual = 0.0704597, Final residual = 0.00269727, No Iterations 2
smoothSolver:  Solving for Uz, Initial residual = 0.640186, Final residual = 0.0197233, No Iterations 1
GAMG:  Solving for p, Initial residual = 0.0224843, Final residual = 0.000438635, No Iterations 2
time step continuity errors : sum local = 5.30955e-05, global = -2.09574e-06, cumulative = -0.00609535
smoothSolver:  Solving for epsilon, Initial residual = 0.0111087, Final residual = 0.000336459, No Iterations 2
smoothSolver:  Solving for k, Initial residual = 0.0137799, Final residual = 0.000440597, No Iterations 2
ExecutionTime = 41.46 s  ClockTime = 42 s

Expression velocity :  min=-7.86001 weightedQuantile0.1=-7.71 weightedAverage=-6.39073 weightedQuantile0.9=-4.46 max=-2.46351
Expression pressure :  min=-0.414865 weightedQuantile0.1=-0.388687 weightedAverage=-0.253813 weightedQuantile0.9=-0.0445882 max=0.00274636
Expression nut :  min=1.33814e-05 weightedQuantile0.1=0.00024488 weightedAverage=0.00857052 weightedQuantile0.9=0.0304789 max=0.0523877
Expression tke :  min=0.00167744 weightedQuantile0.1=0.00327995 weightedAverage=0.0610207 weightedQuantile0.9=0.206333 max=0.345515
Time = 45

smoothSolver:  Solving for Ux, Initial residual = 0.00199692, Final residual = 0.000134885, No Iterations 2
smoothSolver:  Solving for Uy, Initial residual = 0.0741181, Final residual = 0.0027214, No Iterations 2
smoothSolver:  Solving for Uz, Initial residual = 0.63539, Final residual = 0.0173105, No Iterations 1
GAMG:  Solving for p, Initial residual = 0.0204817, Final residual = 0.00200806, No Iterations 1
time step continuity errors : sum local = 0.000242052, global = 3.37591e-06, cumulative = -0.00609198
smoothSolver:  Solving for epsilon, Initial residual = 0.0146573, Final residual = 0.00101006, No Iterations 1
bounding epsilon, min: -0.00349601 max: 14.855 average: 0.156599
smoothSolver:  Solving for k, Initial residual = 0.013737, Final residual = 0.000462404, No Iterations 2
ExecutionTime = 42.31 s  ClockTime = 43 s

Expression velocity :  min=-7.86002 weightedQuantile0.1=-7.71 weightedAverage=-6.39056 weightedQuantile0.9=-4.45 max=-2.46287
Expression pressure :  min=-0.410126 weightedQuantile0.1=-0.386425 weightedAverage=-0.253851 weightedQuantile0.9=-0.0452031 max=0.00285131
Expression nut :  min=7.961e-05 weightedQuantile0.1=0.000238792 weightedAverage=0.00832384 weightedQuantile0.9=0.0302139 max=0.0682049
Expression tke :  min=0.00167646 weightedQuantile0.1=0.00315214 weightedAverage=0.059782 weightedQuantile0.9=0.2008 max=0.345587
Time = 46

smoothSolver:  Solving for Ux, Initial residual = 0.00194301, Final residual = 0.000128689, No Iterations 2
smoothSolver:  Solving for Uy, Initial residual = 0.0783378, Final residual = 0.00746756, No Iterations 1
smoothSolver:  Solving for Uz, Initial residual = 0.553926, Final residual = 0.0145031, No Iterations 1
GAMG:  Solving for p, Initial residual = 0.0214007, Final residual = 0.00209466, No Iterations 1
time step continuity errors : sum local = 0.000249829, global = -3.7126e-06, cumulative = -0.00609569
smoothSolver:  Solving for epsilon, Initial residual = 0.0106928, Final residual = 0.000282767, No Iterations 2
smoothSolver:  Solving for k, Initial residual = 0.0137286, Final residual = 0.000440589, No Iterations 2
ExecutionTime = 43.15 s  ClockTime = 44 s

Expression velocity :  min=-7.86002 weightedQuantile0.1=-7.72 weightedAverage=-6.39055 weightedQuantile0.9=-4.45 max=-2.46342
Expression pressure :  min=-0.400475 weightedQuantile0.1=-0.378571 weightedAverage=-0.250827 weightedQuantile0.9=-0.0467606 max=0.00273904
Expression nut :  min=3.55515e-05 weightedQuantile0.1=0.000235351 weightedAverage=0.00796355 weightedQuantile0.9=0.029864 max=0.0524769
Expression tke :  min=0.00166738 weightedQuantile0.1=0.00296287 weightedAverage=0.0584757 weightedQuantile0.9=0.1945 max=0.345803
Time = 47

smoothSolver:  Solving for Ux, Initial residual = 0.00202736, Final residual = 0.000130312, No Iterations 2
smoothSolver:  Solving for Uy, Initial residual = 0.0820835, Final residual = 0.00301329, No Iterations 2
smoothSolver:  Solving for Uz, Initial residual = 0.577122, Final residual = 0.013804, No Iterations 1
GAMG:  Solving for p, Initial residual = 0.0203215, Final residual = 0.000657893, No Iterations 2
time step continuity errors : sum local = 7.7676e-05, global = -4.94775e-06, cumulative = -0.00610064
smoothSolver:  Solving for epsilon, Initial residual = 0.0124149, Final residual = 0.000994804, No Iterations 1
bounding epsilon, min: -0.00192557 max: 14.855 average: 0.155675
smoothSolver:  Solving for k, Initial residual = 0.013678, Final residual = 0.00046062, No Iterations 2
ExecutionTime = 44.03 s  ClockTime = 45 s

Expression velocity :  min=-7.86002 weightedQuantile0.1=-7.72 weightedAverage=-6.39073 weightedQuantile0.9=-4.45 max=-2.46296
Expression pressure :  min=-0.381366 weightedQuantile0.1=-0.361281 weightedAverage=-0.243137 weightedQuantile0.9=-0.0479643 max=0.00273112
Expression nut :  min=4.34616e-05 weightedQuantile0.1=0.000230519 weightedAverage=0.00771079 weightedQuantile0.9=0.0297267 max=0.0527241
Expression tke :  min=0.00164013 weightedQuantile0.1=0.00274143 weightedAverage=0.0572095 weightedQuantile0.9=0.191 max=0.346275
Time = 48

smoothSolver:  Solving for Ux, Initial residual = 0.001871, Final residual = 0.000125773, No Iterations 2
smoothSolver:  Solving for Uy, Initial residual = 0.0810503, Final residual = 0.00299362, No Iterations 2
smoothSolver:  Solving for Uz, Initial residual = 0.641426, Final residual = 0.0137468, No Iterations 1
GAMG:  Solving for p, Initial residual = 0.0211576, Final residual = 0.00197056, No Iterations 1
time step continuity errors : sum local = 0.000227499, global = 1.92976e-05, cumulative = -0.00608134
smoothSolver:  Solving for epsilon, Initial residual = 0.0103939, Final residual = 0.000247367, No Iterations 2
smoothSolver:  Solving for k, Initial residual = 0.0136029, Final residual = 0.000442126, No Iterations 2
ExecutionTime = 44.89 s  ClockTime = 45 s

Expression velocity :  min=-7.86001 weightedQuantile0.1=-7.72 weightedAverage=-6.39076 weightedQuantile0.9=-4.44 max=-2.46321
Expression pressure :  min=-0.378604 weightedQuantile0.1=-0.360084 weightedAverage=-0.24346 weightedQuantile0.9=-0.0482683 max=0.00299961
Expression nut :  min=4.37545e-05 weightedQuantile0.1=0.000226526 weightedAverage=0.00735413 weightedQuantile0.9=0.0289667 max=0.0525359
Expression tke :  min=0.0016433 weightedQuantile0.1=0.00260474 weightedAverage=0.0559285 weightedQuantile0.9=0.184964 max=0.346321
Time = 49

smoothSolver:  Solving for Ux, Initial residual = 0.00191213, Final residual = 0.000122903, No Iterations 2
smoothSolver:  Solving for Uy, Initial residual = 0.0761151, Final residual = 0.00750621, No Iterations 1
smoothSolver:  Solving for Uz, Initial residual = 0.547482, Final residual = 0.0115414, No Iterations 1
GAMG:  Solving for p, Initial residual = 0.018963, Final residual = 0.000594722, No Iterations 2
time step continuity errors : sum local = 6.83579e-05, global = -2.80173e-06, cumulative = -0.00608414
smoothSolver:  Solving for epsilon, Initial residual = 0.0108122, Final residual = 0.000949093, No Iterations 1
bounding epsilon, min: -0.00481479 max: 14.855 average: 0.154872
smoothSolver:  Solving for k, Initial residual = 0.0135476, Final residual = 0.000455272, No Iterations 2
ExecutionTime = 45.76 s  ClockTime = 46 s

Expression velocity :  min=-7.86002 weightedQuantile0.1=-7.72 weightedAverage=-6.39073 weightedQuantile0.9=-4.44 max=-2.46313
Expression pressure :  min=-0.370625 weightedQuantile0.1=-0.353321 weightedAverage=-0.242732 weightedQuantile0.9=-0.0518493 max=0.00271956
Expression nut :  min=1.7549e-05 weightedQuantile0.1=0.000222731 weightedAverage=0.00709515 weightedQuantile0.9=0.0282667 max=0.0528252
Expression tke :  min=0.00154652 weightedQuantile0.1=0.002498 weightedAverage=0.0546377 weightedQuantile0.9=0.18244 max=0.346274
Time = 50

smoothSolver:  Solving for Ux, Initial residual = 0.00177345, Final residual = 0.000116695, No Iterations 2
smoothSolver:  Solving for Uy, Initial residual = 0.0738353, Final residual = 0.00315011, No Iterations 2
smoothSolver:  Solving for Uz, Initial residual = 0.615964, Final residual = 0.0118556, No Iterations 1
GAMG:  Solving for p, Initial residual = 0.0194439, Final residual = 0.00181201, No Iterations 1
time step continuity errors : sum local = 0.000206453, global = 8.7293e-06, cumulative = -0.00607541
smoothSolver:  Solving for epsilon, Initial residual = 0.0110822, Final residual = 0.00104863, No Iterations 1
bounding epsilon, min: -0.00306911 max: 14.855 average: 0.154182
smoothSolver:  Solving for k, Initial residual = 0.0136307, Final residual = 0.000456167, No Iterations 2
ExecutionTime = 46.61 s  ClockTime = 47 s

Expression velocity :  min=-7.86001 weightedQuantile0.1=-7.73 weightedAverage=-6.39066 weightedQuantile0.9=-4.43 max=-2.46315
Expression pressure :  min=-0.368966 weightedQuantile0.1=-0.352167 weightedAverage=-0.242761 weightedQuantile0.9=-0.0520741 max=0.00293007
Expression nut :  min=1.68321e-05 weightedQuantile0.1=0.000175855 weightedAverage=0.00682985 weightedQuantile0.9=0.0273176 max=0.10896
Expression tke :  min=0.00147816 weightedQuantile0.1=0.00240275 weightedAverage=0.0533581 weightedQuantile0.9=0.1806 max=0.346335
Time = 51

smoothSolver:  Solving for Ux, Initial residual = 0.00180311, Final residual = 0.000109028, No Iterations 2
smoothSolver:  Solving for Uy, Initial residual = 0.0690679, Final residual = 0.0027938, No Iterations 2
smoothSolver:  Solving for Uz, Initial residual = 0.530204, Final residual = 0.0103951, No Iterations 1
GAMG:  Solving for p, Initial residual = 0.0196441, Final residual = 0.00184801, No Iterations 1
time step continuity errors : sum local = 0.000209655, global = -2.55755e-06, cumulative = -0.00607797
smoothSolver:  Solving for epsilon, Initial residual = 0.0129013, Final residual = 0.00119813, No Iterations 1
bounding epsilon, min: -0.000801477 max: 14.855 average: 0.154001
smoothSolver:  Solving for k, Initial residual = 0.0135672, Final residual = 0.000457708, No Iterations 2
bounding k, min: -0.0038754 max: 0.375 average: 0.0520519
ExecutionTime = 47.47 s  ClockTime = 48 s

Expression velocity :  min=-7.86002 weightedQuantile0.1=-7.73 weightedAverage=-6.39056 weightedQuantile0.9=-4.43 max=-2.46336
Expression pressure :  min=-0.362435 weightedQuantile0.1=-0.345827 weightedAverage=-0.23996 weightedQuantile0.9=-0.053 max=0.00285938
Expression nut :  min=7.04308e-07 weightedQuantile0.1=0.000216969 weightedAverage=0.00655807 weightedQuantile0.9=0.0261882 max=0.0669768
Expression tke :  min=0.000928185 weightedQuantile0.1=0.00231161 weightedAverage=0.0520523 weightedQuantile0.9=0.179333 max=0.346496
Time = 52

smoothSolver:  Solving for Ux, Initial residual = 0.00186032, Final residual = 0.00010257, No Iterations 2
smoothSolver:  Solving for Uy, Initial residual = 0.0684518, Final residual = 0.00272554, No Iterations 2
smoothSolver:  Solving for Uz, Initial residual = 0.546533, Final residual = 0.0101093, No Iterations 1
GAMG:  Solving for p, Initial residual = 0.0197027, Final residual = 0.00178181, No Iterations 1
time step continuity errors : sum local = 0.000200133, global = -6.95881e-06, cumulative = -0.00608493
smoothSolver:  Solving for epsilon, Initial residual = 0.0145751, Final residual = 0.00108784, No Iterations 1
bounding epsilon, min: -0.00405074 max: 14.855 average: 0.15215
smoothSolver:  Solving for k, Initial residual = 0.01343, Final residual = 0.000464906, No Iterations 2
ExecutionTime = 48.32 s  ClockTime = 49 s

Expression velocity :  min=-7.86001 weightedQuantile0.1=-7.73 weightedAverage=-6.39055 weightedQuantile0.9=-4.42 max=-2.46299
Expression pressure :  min=-0.356156 weightedQuantile0.1=-0.33933 weightedAverage=-0.236354 weightedQuantile0.9=-0.0536458 max=0.00287467
Expression nut :  min=1.71967e-05 weightedQuantile0.1=0.000170561 weightedAverage=0.00629775 weightedQuantile0.9=0.0249121 max=0.157421
Expression tke :  min=0.00131689 weightedQuantile0.1=0.00222053 weightedAverage=0.0508641 weightedQuantile0.9=0.177115 max=0.346568
Time = 53

smoothSolver:  Solving for Ux, Initial residual = 0.00184385, Final residual = 9.73387e-05, No Iterations 2
smoothSolver:  Solving for Uy, Initial residual = 0.0673434, Final residual = 0.00256584, No Iterations 2
smoothSolver:  Solving for Uz, Initial residual = 0.53396, Final residual = 0.0105674, No Iterations 1
GAMG:  Solving for p, Initial residual = 0.0205198, Final residual = 0.0018103, No Iterations 1
time step continuity errors : sum local = 0.000201081, global = -1.14299e-05, cumulative = -0.00609636
smoothSolver:  Solving for epsilon, Initial residual = 0.012093, Final residual = 0.000266827, No Iterations 2
bounding epsilon, min: -0.00776097 max: 14.855 average: 0.152626
smoothSolver:  Solving for k, Initial residual = 0.0131361, Final residual = 0.000440782, No Iterations 2
ExecutionTime = 49.18 s  ClockTime = 50 s

Expression velocity :  min=-7.86001 weightedQuantile0.1=-7.73 weightedAverage=-6.39059 weightedQuantile0.9=-4.42 max=-2.46353
Expression pressure :  min=-0.346925 weightedQuantile0.1=-0.329252 weightedAverage=-0.230456 weightedQuantile0.9=-0.054 max=0.00280462
Expression nut :  min=2.31719e-07 weightedQuantile0.1=0.000213993 weightedAverage=0.00594217 weightedQuantile0.9=0.0231667 max=0.0522801
Expression tke :  min=0.000311246 weightedQuantile0.1=0.00212608 weightedAverage=0.0496111 weightedQuantile0.9=0.174462 max=0.346461
Time = 54

smoothSolver:  Solving for Ux, Initial residual = 0.00181309, Final residual = 9.63771e-05, No Iterations 2
smoothSolver:  Solving for Uy, Initial residual = 0.0646804, Final residual = 0.00243343, No Iterations 2
smoothSolver:  Solving for Uz, Initial residual = 0.546449, Final residual = 0.00995383, No Iterations 1
GAMG:  Solving for p, Initial residual = 0.0176244, Final residual = 0.00162058, No Iterations 1
time step continuity errors : sum local = 0.000177651, global = -7.00607e-06, cumulative = -0.00610336
smoothSolver:  Solving for epsilon, Initial residual = 0.0120758, Final residual = 0.000873357, No Iterations 1
bounding epsilon, min: -0.00237566 max: 14.855 average: 0.150702
smoothSolver:  Solving for k, Initial residual = 0.012881, Final residual = 0.000454835, No Iterations 2
ExecutionTime = 50.05 s  ClockTime = 51 s

Expression velocity :  min=-7.86001 weightedQuantile0.1=-7.73 weightedAverage=-6.39058 weightedQuantile0.9=-4.41 max=-2.46287
Expression pressure :  min=-0.339877 weightedQuantile0.1=-0.322179 weightedAverage=-0.226575 weightedQuantile0.9=-0.0547407 max=0.00269577
Expression nut :  min=4.02015e-05 weightedQuantile0.1=0.000211842 weightedAverage=0.00568581 weightedQuantile0.9=0.02186 max=0.0522293
Expression tke :  min=0.00121004 weightedQuantile0.1=0.00204116 weightedAverage=0.0484269 weightedQuantile0.9=0.172315 max=0.346653
Time = 55

smoothSolver:  Solving for Ux, Initial residual = 0.00165647, Final residual = 9.06921e-05, No Iterations 2
smoothSolver:  Solving for Uy, Initial residual = 0.064469, Final residual = 0.00245671, No Iterations 2
smoothSolver:  Solving for Uz, Initial residual = 0.539084, Final residual = 0.00966704, No Iterations 1
GAMG:  Solving for p, Initial residual = 0.0183953, Final residual = 0.00152948, No Iterations 1
time step continuity errors : sum local = 0.000165662, global = -8.82942e-06, cumulative = -0.00611219
smoothSolver:  Solving for epsilon, Initial residual = 0.00991473, Final residual = 0.000231687, No Iterations 2
smoothSolver:  Solving for k, Initial residual = 0.0126203, Final residual = 0.000430617, No Iterations 2
ExecutionTime = 50.91 s  ClockTime = 51 s

Expression velocity :  min=-7.86 weightedQuantile0.1=-7.74 weightedAverage=-6.39061 weightedQuantile0.9=-4.41 max=-2.46369
Expression pressure :  min=-0.331904 weightedQuantile0.1=-0.314934 weightedAverage=-0.222441 weightedQuantile0.9=-0.0555238 max=0.00254053
Expression nut :  min=1.89457e-05 weightedQuantile0.1=0.000210539 weightedAverage=0.00535114 weightedQuantile0.9=0.0199375 max=0.0521179
Expression tke :  min=0.00118627 weightedQuantile0.1=0.00194518 weightedAverage=0.0471865 weightedQuantile0.9=0.171745 max=0.346336
Time = 56

smoothSolver:  Solving for Ux, Initial residual = 0.00158068, Final residual = 8.92593e-05, No Iterations 2
smoothSolver:  Solving for Uy, Initial residual = 0.0670806, Final residual = 0.00667834, No Iterations 1
smoothSolver:  Solving for Uz, Initial residual = 0.533257, Final residual = 0.00936803, No Iterations 1
GAMG:  Solving for p, Initial residual = 0.0168488, Final residual = 0.00140085, No Iterations 1
time step continuity errors : sum local = 0.000150229, global = -7.83492e-06, cumulative = -0.00612003
smoothSolver:  Solving for epsilon, Initial residual = 0.0114584, Final residual = 0.000757747, No Iterations 1
bounding epsilon, min: -0.00239971 max: 14.855 average: 0.149228
[...]
Expression pressure :  min=-140334 weightedQuantile0.1=-5844.96 weightedAverage=1500.23 weightedQuantile0.9=10633.7 max=96625.1
Expression nut :  min=2.305e-33 weightedQuantile0.1=10.6372 weightedAverage=251.832 weightedQuantile0.9=95.7345 max=84990.1
Expression tke :  min=1e-15 weightedQuantile0.1=1064.06 weightedAverage=8596.37 weightedQuantile0.9=9576.51 max=3.59804e+06
Time = 1986

smoothSolver:  Solving for Ux, Initial residual = 0.00135694, Final residual = 0.000103536, No Iterations 3
smoothSolver:  Solving for Uy, Initial residual = 0.00216691, Final residual = 0.000168241, No Iterations 2
smoothSolver:  Solving for Uz, Initial residual = 0.00498266, Final residual = 0.000369593, No Iterations 2
GAMG:  Solving for p, Initial residual = 0.00258623, Final residual = 0.000246304, No Iterations 2
time step continuity errors : sum local = 0.0137153, global = -0.00162551, cumulative = 20.7938
smoothSolver:  Solving for epsilon, Initial residual = 7.59613e-06, Final residual = 7.59613e-06, No Iterations 0
smoothSolver:  Solving for k, Initial residual = 3.16027e-08, Final residual = 3.16027e-08, No Iterations 0
ExecutionTime = 1799.29 s  ClockTime = 3037 s

Expression velocity :  min=856.962 weightedQuantile0.1=4158.61 weightedAverage=4200.82 weightedQuantile0.9=4365.75 max=5122.68
Expression pressure :  min=-139508 weightedQuantile0.1=-5747.18 weightedAverage=1713.87 weightedQuantile0.9=10850.2 max=96208.5
Expression nut :  min=2.305e-33 weightedQuantile0.1=10.6372 weightedAverage=251.832 weightedQuantile0.9=95.7345 max=84990.1
Expression tke :  min=1e-15 weightedQuantile0.1=1064.06 weightedAverage=8596.37 weightedQuantile0.9=9576.51 max=3.59804e+06
Time = 1987

smoothSolver:  Solving for Ux, Initial residual = 0.00133808, Final residual = 0.000101142, No Iterations 3
smoothSolver:  Solving for Uy, Initial residual = 0.00211175, Final residual = 0.000168191, No Iterations 2
smoothSolver:  Solving for Uz, Initial residual = 0.0049137, Final residual = 0.000375763, No Iterations 2
GAMG:  Solving for p, Initial residual = 0.00255901, Final residual = 0.000251407, No Iterations 2
time step continuity errors : sum local = 0.0139861, global = -0.00156498, cumulative = 20.7922
smoothSolver:  Solving for epsilon, Initial residual = 7.59613e-06, Final residual = 7.59613e-06, No Iterations 0
smoothSolver:  Solving for k, Initial residual = 3.16027e-08, Final residual = 3.16027e-08, No Iterations 0
ExecutionTime = 1800.15 s  ClockTime = 3038 s

Expression velocity :  min=854.603 weightedQuantile0.1=4158.43 weightedAverage=4200.74 weightedQuantile0.9=4365.65 max=5122.57
Expression pressure :  min=-138526 weightedQuantile0.1=-5615.89 weightedAverage=1989.22 weightedQuantile0.9=11185 max=95915.7
Expression nut :  min=2.305e-33 weightedQuantile0.1=10.6372 weightedAverage=251.832 weightedQuantile0.9=95.7345 max=84990.1
Expression tke :  min=1e-15 weightedQuantile0.1=1064.06 weightedAverage=8596.37 weightedQuantile0.9=9576.51 max=3.59804e+06
Time = 1988

smoothSolver:  Solving for Ux, Initial residual = 0.00131883, Final residual = 9.85166e-05, No Iterations 3
smoothSolver:  Solving for Uy, Initial residual = 0.00204778, Final residual = 0.000169069, No Iterations 2
smoothSolver:  Solving for Uz, Initial residual = 0.00483768, Final residual = 0.000385294, No Iterations 2
GAMG:  Solving for p, Initial residual = 0.0025279, Final residual = 0.000190286, No Iterations 3
time step continuity errors : sum local = 0.0105771, global = 0.00216612, cumulative = 20.7944
smoothSolver:  Solving for epsilon, Initial residual = 7.59613e-06, Final residual = 7.59613e-06, No Iterations 0
smoothSolver:  Solving for k, Initial residual = 3.16027e-08, Final residual = 3.16027e-08, No Iterations 0
ExecutionTime = 1801.04 s  ClockTime = 3039 s

Expression velocity :  min=853.051 weightedQuantile0.1=4158.2 weightedAverage=4200.64 weightedQuantile0.9=4365.48 max=5122.47
Expression pressure :  min=-136800 weightedQuantile0.1=-4857.48 weightedAverage=2843.19 weightedQuantile0.9=12197.7 max=96301.6
Expression nut :  min=2.305e-33 weightedQuantile0.1=10.6372 weightedAverage=251.832 weightedQuantile0.9=95.7345 max=84990.1
Expression tke :  min=1e-15 weightedQuantile0.1=1064.06 weightedAverage=8596.37 weightedQuantile0.9=9576.51 max=3.59804e+06
Time = 1989

smoothSolver:  Solving for Ux, Initial residual = 0.00133449, Final residual = 9.51817e-05, No Iterations 3
smoothSolver:  Solving for Uy, Initial residual = 0.00201137, Final residual = 0.00017173, No Iterations 2
smoothSolver:  Solving for Uz, Initial residual = 0.00495587, Final residual = 0.000412273, No Iterations 2
GAMG:  Solving for p, Initial residual = 0.00260201, Final residual = 0.000176933, No Iterations 3
time step continuity errors : sum local = 0.00983076, global = -0.00227026, cumulative = 20.7921
smoothSolver:  Solving for epsilon, Initial residual = 7.59613e-06, Final residual = 7.59613e-06, No Iterations 0
smoothSolver:  Solving for k, Initial residual = 3.16028e-08, Final residual = 3.16028e-08, No Iterations 0
ExecutionTime = 1801.94 s  ClockTime = 3040 s

Expression velocity :  min=852.254 weightedQuantile0.1=4157.97 weightedAverage=4200.53 weightedQuantile0.9=4365.33 max=5122.34
Expression pressure :  min=-136066 weightedQuantile0.1=-5473.95 weightedAverage=2572.55 weightedQuantile0.9=12141.7 max=95656
Expression nut :  min=2.305e-33 weightedQuantile0.1=10.6372 weightedAverage=251.832 weightedQuantile0.9=95.7345 max=84990.1
Expression tke :  min=1e-15 weightedQuantile0.1=1064.06 weightedAverage=8596.37 weightedQuantile0.9=9576.51 max=3.59804e+06
Time = 1990

smoothSolver:  Solving for Ux, Initial residual = 0.00128182, Final residual = 9.22108e-05, No Iterations 3
smoothSolver:  Solving for Uy, Initial residual = 0.00195705, Final residual = 0.000174985, No Iterations 2
smoothSolver:  Solving for Uz, Initial residual = 0.00494989, Final residual = 0.000437648, No Iterations 2
GAMG:  Solving for p, Initial residual = 0.00245143, Final residual = 0.000230581, No Iterations 3
time step continuity errors : sum local = 0.0128018, global = 0.00250912, cumulative = 20.7946
smoothSolver:  Solving for epsilon, Initial residual = 7.59613e-06, Final residual = 7.59613e-06, No Iterations 0
smoothSolver:  Solving for k, Initial residual = 3.16028e-08, Final residual = 3.16028e-08, No Iterations 0
ExecutionTime = 1802.82 s  ClockTime = 3041 s

Expression velocity :  min=852.33 weightedQuantile0.1=4157.74 weightedAverage=4200.4 weightedQuantile0.9=4365.14 max=5122.22
Expression pressure :  min=-133483 weightedQuantile0.1=-4086.48 weightedAverage=4007.71 weightedQuantile0.9=13902.8 max=96809.4
Expression nut :  min=2.305e-33 weightedQuantile0.1=10.6372 weightedAverage=251.832 weightedQuantile0.9=95.7345 max=84990.1
Expression tke :  min=1e-15 weightedQuantile0.1=1064.06 weightedAverage=8596.37 weightedQuantile0.9=9576.51 max=3.59804e+06
Time = 1991

smoothSolver:  Solving for Ux, Initial residual = 0.00131102, Final residual = 9.00467e-05, No Iterations 3
smoothSolver:  Solving for Uy, Initial residual = 0.00193142, Final residual = 0.000179159, No Iterations 2
smoothSolver:  Solving for Uz, Initial residual = 0.00493471, Final residual = 0.000462148, No Iterations 2
GAMG:  Solving for p, Initial residual = 0.00260863, Final residual = 0.000196472, No Iterations 3
time step continuity errors : sum local = 0.010909, global = -0.0021151, cumulative = 20.7925
smoothSolver:  Solving for epsilon, Initial residual = 7.59613e-06, Final residual = 7.59613e-06, No Iterations 0
smoothSolver:  Solving for k, Initial residual = 3.16029e-08, Final residual = 3.16029e-08, No Iterations 0
ExecutionTime = 1803.7 s  ClockTime = 3042 s

Expression velocity :  min=852.896 weightedQuantile0.1=4157.43 weightedAverage=4200.26 weightedQuantile0.9=4364.97 max=5122.07
Expression pressure :  min=-132782 weightedQuantile0.1=-4842.76 weightedAverage=3588.15 weightedQuantile0.9=13818.4 max=96028.3
Expression nut :  min=2.305e-33 weightedQuantile0.1=10.6372 weightedAverage=251.832 weightedQuantile0.9=95.7345 max=84990.1
Expression tke :  min=1e-15 weightedQuantile0.1=1064.06 weightedAverage=8596.37 weightedQuantile0.9=9576.51 max=3.59804e+06
Time = 1992

smoothSolver:  Solving for Ux, Initial residual = 0.00125017, Final residual = 8.80145e-05, No Iterations 3
smoothSolver:  Solving for Uy, Initial residual = 0.00190052, Final residual = 0.00018417, No Iterations 2
smoothSolver:  Solving for Uz, Initial residual = 0.00496458, Final residual = 0.000490363, No Iterations 2
GAMG:  Solving for p, Initial residual = 0.00241218, Final residual = 0.000233015, No Iterations 2
time step continuity errors : sum local = 0.0129298, global = -0.00193762, cumulative = 20.7906
smoothSolver:  Solving for epsilon, Initial residual = 7.59613e-06, Final residual = 7.59613e-06, No Iterations 0
smoothSolver:  Solving for k, Initial residual = 3.16029e-08, Final residual = 3.16029e-08, No Iterations 0
ExecutionTime = 1804.56 s  ClockTime = 3042 s

Expression velocity :  min=854.113 weightedQuantile0.1=4157.13 weightedAverage=4200.13 weightedQuantile0.9=4364.8 max=5121.95
Expression pressure :  min=-131139 weightedQuantile0.1=-4431.59 weightedAverage=4146.54 weightedQuantile0.9=14621 max=96177.5
Expression nut :  min=2.305e-33 weightedQuantile0.1=10.6372 weightedAverage=251.832 weightedQuantile0.9=95.7345 max=84990.1
Expression tke :  min=1e-15 weightedQuantile0.1=1064.06 weightedAverage=8596.37 weightedQuantile0.9=9576.51 max=3.59804e+06
Time = 1993

smoothSolver:  Solving for Ux, Initial residual = 0.00123261, Final residual = 8.61942e-05, No Iterations 3
smoothSolver:  Solving for Uy, Initial residual = 0.0018738, Final residual = 0.000100839, No Iterations 3
smoothSolver:  Solving for Uz, Initial residual = 0.0048454, Final residual = 0.000286628, No Iterations 3
GAMG:  Solving for p, Initial residual = 0.00240751, Final residual = 0.000229794, No Iterations 2
time step continuity errors : sum local = 0.012748, global = -0.00144749, cumulative = 20.7891
smoothSolver:  Solving for epsilon, Initial residual = 7.59613e-06, Final residual = 7.59613e-06, No Iterations 0
smoothSolver:  Solving for k, Initial residual = 3.16029e-08, Final residual = 3.16029e-08, No Iterations 0
ExecutionTime = 1805.44 s  ClockTime = 3043 s

Expression velocity :  min=855.861 weightedQuantile0.1=4156.91 weightedAverage=4200 weightedQuantile0.9=4364.62 max=5121.82
Expression pressure :  min=-129476 weightedQuantile0.1=-3996.71 weightedAverage=4593.49 weightedQuantile0.9=15338.1 max=96242.6
Expression nut :  min=2.305e-33 weightedQuantile0.1=10.6372 weightedAverage=251.832 weightedQuantile0.9=95.7345 max=84990.1
Expression tke :  min=1e-15 weightedQuantile0.1=1064.06 weightedAverage=8596.37 weightedQuantile0.9=9576.51 max=3.59804e+06
Time = 1994

smoothSolver:  Solving for Ux, Initial residual = 0.00122177, Final residual = 8.43946e-05, No Iterations 3
smoothSolver:  Solving for Uy, Initial residual = 0.001868, Final residual = 0.000101437, No Iterations 3
smoothSolver:  Solving for Uz, Initial residual = 0.00483729, Final residual = 0.000283032, No Iterations 3
GAMG:  Solving for p, Initial residual = 0.00239213, Final residual = 0.000155018, No Iterations 2
time step continuity errors : sum local = 0.00859815, global = 0.00077649, cumulative = 20.7899
smoothSolver:  Solving for epsilon, Initial residual = 7.59613e-06, Final residual = 7.59613e-06, No Iterations 0
smoothSolver:  Solving for k, Initial residual = 3.1603e-08, Final residual = 3.1603e-08, No Iterations 0
ExecutionTime = 1806.33 s  ClockTime = 3044 s

Expression velocity :  min=857.768 weightedQuantile0.1=4156.69 weightedAverage=4199.85 weightedQuantile0.9=4364.3 max=5121.7
Expression pressure :  min=-127663 weightedQuantile0.1=-3837.45 weightedAverage=5120.59 weightedQuantile0.9=16220.1 max=96431.9
Expression nut :  min=2.305e-33 weightedQuantile0.1=10.6372 weightedAverage=251.832 weightedQuantile0.9=95.7345 max=84990.1
Expression tke :  min=1e-15 weightedQuantile0.1=1064.06 weightedAverage=8596.37 weightedQuantile0.9=9576.51 max=3.59804e+06
Time = 1995

smoothSolver:  Solving for Ux, Initial residual = 0.00122216, Final residual = 8.26058e-05, No Iterations 3
smoothSolver:  Solving for Uy, Initial residual = 0.00189783, Final residual = 0.00010434, No Iterations 3
smoothSolver:  Solving for Uz, Initial residual = 0.00498867, Final residual = 0.000291986, No Iterations 3
GAMG:  Solving for p, Initial residual = 0.00240631, Final residual = 0.000143166, No Iterations 2
time step continuity errors : sum local = 0.00794031, global = 0.000952699, cumulative = 20.7909
smoothSolver:  Solving for epsilon, Initial residual = 7.59613e-06, Final residual = 7.59613e-06, No Iterations 0
smoothSolver:  Solving for k, Initial residual = 3.1603e-08, Final residual = 3.1603e-08, No Iterations 0
ExecutionTime = 1807.21 s  ClockTime = 3045 s

Expression velocity :  min=860.057 weightedQuantile0.1=4156.43 weightedAverage=4199.7 weightedQuantile0.9=4364.06 max=5121.56
Expression pressure :  min=-126249 weightedQuantile0.1=-3801.46 weightedAverage=5341.34 weightedQuantile0.9=16794.6 max=96262.3
Expression nut :  min=2.305e-33 weightedQuantile0.1=10.6372 weightedAverage=251.832 weightedQuantile0.9=95.7345 max=84990.1
Expression tke :  min=1e-15 weightedQuantile0.1=1064.06 weightedAverage=8596.37 weightedQuantile0.9=9576.51 max=3.59804e+06
Time = 1996

smoothSolver:  Solving for Ux, Initial residual = 0.00119626, Final residual = 8.11341e-05, No Iterations 3
smoothSolver:  Solving for Uy, Initial residual = 0.00189282, Final residual = 0.000106299, No Iterations 3
smoothSolver:  Solving for Uz, Initial residual = 0.00499083, Final residual = 0.000294691, No Iterations 3
GAMG:  Solving for p, Initial residual = 0.00234657, Final residual = 8.23642e-05, No Iterations 2
time step continuity errors : sum local = 0.00456718, global = -0.000350688, cumulative = 20.7905
smoothSolver:  Solving for epsilon, Initial residual = 7.59613e-06, Final residual = 7.59613e-06, No Iterations 0
smoothSolver:  Solving for k, Initial residual = 3.16031e-08, Final residual = 3.16031e-08, No Iterations 0
ExecutionTime = 1808.08 s  ClockTime = 3046 s

Expression velocity :  min=862.582 weightedQuantile0.1=4156.13 weightedAverage=4199.55 weightedQuantile0.9=4363.93 max=5121.44
Expression pressure :  min=-125122 weightedQuantile0.1=-3956.9 weightedAverage=5308.43 weightedQuantile0.9=17040.9 max=95806.2
Expression nut :  min=2.305e-33 weightedQuantile0.1=10.6372 weightedAverage=251.832 weightedQuantile0.9=95.7345 max=84990.1
Expression tke :  min=1e-15 weightedQuantile0.1=1064.06 weightedAverage=8596.37 weightedQuantile0.9=9576.51 max=3.59804e+06
Time = 1997

smoothSolver:  Solving for Ux, Initial residual = 0.00116425, Final residual = 7.95315e-05, No Iterations 3
smoothSolver:  Solving for Uy, Initial residual = 0.00191121, Final residual = 0.000109361, No Iterations 3
smoothSolver:  Solving for Uz, Initial residual = 0.00508638, Final residual = 0.000304233, No Iterations 3
GAMG:  Solving for p, Initial residual = 0.0022598, Final residual = 0.00012804, No Iterations 2
time step continuity errors : sum local = 0.00709737, global = 0.000758824, cumulative = 20.7913
smoothSolver:  Solving for epsilon, Initial residual = 7.59613e-06, Final residual = 7.59613e-06, No Iterations 0
smoothSolver:  Solving for k, Initial residual = 3.16031e-08, Final residual = 3.16031e-08, No Iterations 0
ExecutionTime = 1808.96 s  ClockTime = 3047 s

Expression velocity :  min=865.526 weightedQuantile0.1=4155.92 weightedAverage=4199.42 weightedQuantile0.9=4363.75 max=5121.33
Expression pressure :  min=-123957 weightedQuantile0.1=-3803.39 weightedAverage=5569.97 weightedQuantile0.9=17440.5 max=96415.8
Expression nut :  min=2.305e-33 weightedQuantile0.1=10.6372 weightedAverage=251.832 weightedQuantile0.9=95.7345 max=84990.1
Expression tke :  min=1e-15 weightedQuantile0.1=1064.06 weightedAverage=8596.37 weightedQuantile0.9=9576.51 max=3.59804e+06
Time = 1998

smoothSolver:  Solving for Ux, Initial residual = 0.0011395, Final residual = 7.75872e-05, No Iterations 3
smoothSolver:  Solving for Uy, Initial residual = 0.00189459, Final residual = 0.00011015, No Iterations 3
smoothSolver:  Solving for Uz, Initial residual = 0.0049755, Final residual = 0.000299911, No Iterations 3
GAMG:  Solving for p, Initial residual = 0.00222893, Final residual = 0.000124068, No Iterations 2
time step continuity errors : sum local = 0.00687532, global = 0.000805295, cumulative = 20.7921
smoothSolver:  Solving for epsilon, Initial residual = 7.59613e-06, Final residual = 7.59613e-06, No Iterations 0
smoothSolver:  Solving for k, Initial residual = 3.16031e-08, Final residual = 3.16031e-08, No Iterations 0
ExecutionTime = 1809.83 s  ClockTime = 3048 s

Expression velocity :  min=868.767 weightedQuantile0.1=4155.63 weightedAverage=4199.3 weightedQuantile0.9=4363.54 max=5121.22
Expression pressure :  min=-123229 weightedQuantile0.1=-3911.98 weightedAverage=5441.31 weightedQuantile0.9=17409.7 max=96673.2
Expression nut :  min=2.305e-33 weightedQuantile0.1=10.6372 weightedAverage=251.832 weightedQuantile0.9=95.7345 max=84990.1
Expression tke :  min=1e-15 weightedQuantile0.1=1064.06 weightedAverage=8596.37 weightedQuantile0.9=9576.51 max=3.59804e+06
Time = 1999

smoothSolver:  Solving for Ux, Initial residual = 0.0011084, Final residual = 7.58018e-05, No Iterations 3
smoothSolver:  Solving for Uy, Initial residual = 0.00188926, Final residual = 0.000111336, No Iterations 3
smoothSolver:  Solving for Uz, Initial residual = 0.0049089, Final residual = 0.000296546, No Iterations 3
GAMG:  Solving for p, Initial residual = 0.00213918, Final residual = 7.99209e-05, No Iterations 2
time step continuity errors : sum local = 0.00442687, global = 0.000151297, cumulative = 20.7922
smoothSolver:  Solving for epsilon, Initial residual = 7.59613e-06, Final residual = 7.59613e-06, No Iterations 0
smoothSolver:  Solving for k, Initial residual = 3.16032e-08, Final residual = 3.16032e-08, No Iterations 0
ExecutionTime = 1810.72 s  ClockTime = 3049 s

Expression velocity :  min=872.146 weightedQuantile0.1=4155.46 weightedAverage=4199.2 weightedQuantile0.9=4363.42 max=5121.14
Expression pressure :  min=-122788 weightedQuantile0.1=-4354.3 weightedAverage=5101.41 weightedQuantile0.9=17115.5 max=96715.2
Expression nut :  min=2.305e-33 weightedQuantile0.1=10.6372 weightedAverage=251.832 weightedQuantile0.9=95.7345 max=84990.1
Expression tke :  min=1e-15 weightedQuantile0.1=1064.06 weightedAverage=8596.37 weightedQuantile0.9=9576.51 max=3.59804e+06
Time = 2000

smoothSolver:  Solving for Ux, Initial residual = 0.00107975, Final residual = 7.39723e-05, No Iterations 3
smoothSolver:  Solving for Uy, Initial residual = 0.00190931, Final residual = 0.000113295, No Iterations 3
smoothSolver:  Solving for Uz, Initial residual = 0.00490996, Final residual = 0.000296479, No Iterations 3
GAMG:  Solving for p, Initial residual = 0.00209338, Final residual = 6.95582e-05, No Iterations 2
time step continuity errors : sum local = 0.00385062, global = -0.000141686, cumulative = 20.7921
smoothSolver:  Solving for epsilon, Initial residual = 7.59613e-06, Final residual = 7.59613e-06, No Iterations 0
smoothSolver:  Solving for k, Initial residual = 3.16032e-08, Final residual = 3.16032e-08, No Iterations 0
ExecutionTime = 1812.92 s  ClockTime = 3051 s

    functionObjects::CourantNo CourantNo writing field: Co
Expression velocity :  min=875.729 weightedQuantile0.1=4155.31 weightedAverage=4199.11 weightedQuantile0.9=4363.25 max=5121.05
Expression pressure :  min=-122261 weightedQuantile0.1=-4593.93 weightedAverage=4926.33 weightedQuantile0.9=16989.7 max=96886.2
Expression nut :  min=2.305e-33 weightedQuantile0.1=10.6372 weightedAverage=251.832 weightedQuantile0.9=95.7345 max=84990.1
Expression tke :  min=1e-15 weightedQuantile0.1=1064.06 weightedAverage=8596.37 weightedQuantile0.9=9576.51 max=3.59804e+06
End

