/*---------------------------------------------------------------------------*\
| =========                 |                                                 |
| \\      /  F ield         | OpenFOAM: The Open Source CFD Toolbox           |
|  \\    /   O peration     | Version:  2012                                  |
|   \\  /    A nd           | Website:  www.openfoam.com                      |
|    \\/     M anipulation  |                                                 |
\*---------------------------------------------------------------------------*/
Build  : _269d0ffd5c-20210619 OPENFOAM=2012 patch=210618
Arch   : "LSB;label=32;scalar=64"
Exec   : /usr/lib/openfoam/openfoam2012/platforms/linux64GccDPInt32Opt/bin/simpleFoam
Date   : Aug 24 2022
Time   : 19:35:36
Host   : 3142f0d1db43
PID    : 781
I/O    : uncollated
Case   : /home/openfoam/of2012_projects/hotRoom6E_ABLZref
nProcs : 1
trapFpe: Floating point exception trapping enabled (FOAM_SIGFPE).
fileModificationChecking : Monitoring run-time modified files using timeStampMaster (fileModificationSkew 5, maxFileModificationPolls 20)
allowSystemOperations : Allowing user-supplied system call operations

// * * * * * * * * * * * * * * * * * * * * * * * * * * * * * * * * * * * * * //
Create time

Create mesh for time = 0


SIMPLE: convergence criteria
    field p	 tolerance 0.01
    field U	 tolerance 0.001
    field "(k|epsilon|omega|f|v2)"	 tolerance 0.001

Reading field p

Reading field U

Reading/calculating face flux field phi

Selecting incompressible transport model Newtonian
Selecting turbulence model type RAS
Selecting RAS turbulence model kEpsilon
RAS
{
    RASModel        kEpsilon;
    turbulence      on;
    printCoeffs     on;
    Cmu             0.09;
    C1              1.44;
    C2              1.92;
    C3              0;
    sigmak          1;
    sigmaEps        1.3;
}

No MRF models present

No finite volume options present

Starting time loop

Time = 1

smoothSolver:  Solving for Ux, Initial residual = 1, Final residual = 0.0913304, No Iterations 2
smoothSolver:  Solving for Uy, Initial residual = 1, Final residual = 0.0809594, No Iterations 2
smoothSolver:  Solving for Uz, Initial residual = 1, Final residual = 0.0638687, No Iterations 5
GAMG:  Solving for p, Initial residual = 1, Final residual = 0.0374046, No Iterations 4
time step continuity errors : sum local = 0.00147383, global = -0.00013578, cumulative = -0.00013578
smoothSolver:  Solving for epsilon, Initial residual = 0.968524, Final residual = 5.18565e-05, No Iterations 1
smoothSolver:  Solving for k, Initial residual = 1, Final residual = 0.0274334, No Iterations 1
bounding k, min: -0.291024 max: 0.375 average: 0.0537595
ExecutionTime = 2.9 s  ClockTime = 3 s

Time = 2

smoothSolver:  Solving for Ux, Initial residual = 0.355624, Final residual = 0.0109759, No Iterations 2
smoothSolver:  Solving for Uy, Initial residual = 0.556937, Final residual = 0.0488368, No Iterations 1
smoothSolver:  Solving for Uz, Initial residual = 0.683663, Final residual = 0.059513, No Iterations 1
GAMG:  Solving for p, Initial residual = 0.695761, Final residual = 0.0458976, No Iterations 4
time step continuity errors : sum local = 0.0581128, global = 0.0131032, cumulative = 0.0129674
smoothSolver:  Solving for epsilon, Initial residual = 0.902167, Final residual = 0.00644839, No Iterations 1
bounding epsilon, min: -11.4218 max: 14.855 average: 0.285446
smoothSolver:  Solving for k, Initial residual = 0.352705, Final residual = 0.0289051, No Iterations 1
bounding k, min: -0.199193 max: 0.375 average: 0.0380668
ExecutionTime = 3.74 s  ClockTime = 4 s

Time = 3

smoothSolver:  Solving for Ux, Initial residual = 0.12509, Final residual = 0.00420534, No Iterations 2
smoothSolver:  Solving for Uy, Initial residual = 0.381129, Final residual = 0.00996784, No Iterations 2
smoothSolver:  Solving for Uz, Initial residual = 0.484308, Final residual = 0.0110075, No Iterations 2
GAMG:  Solving for p, Initial residual = 0.804475, Final residual = 0.0578577, No Iterations 4
time step continuity errors : sum local = 0.0607051, global = 0.0127957, cumulative = 0.0257631
smoothSolver:  Solving for epsilon, Initial residual = 0.387084, Final residual = 0.0291359, No Iterations 1
bounding epsilon, min: -15.0905 max: 14.855 average: 0.347105
smoothSolver:  Solving for k, Initial residual = 0.334382, Final residual = 0.0274794, No Iterations 1
bounding k, min: -0.479743 max: 0.600707 average: 0.0351052
ExecutionTime = 4.62 s  ClockTime = 5 s

Time = 4

smoothSolver:  Solving for Ux, Initial residual = 0.103318, Final residual = 0.00206622, No Iterations 2
smoothSolver:  Solving for Uy, Initial residual = 0.317807, Final residual = 0.00698176, No Iterations 2
smoothSolver:  Solving for Uz, Initial residual = 0.553987, Final residual = 0.007784, No Iterations 2
GAMG:  Solving for p, Initial residual = 0.375329, Final residual = 0.0157703, No Iterations 2
time step continuity errors : sum local = 0.0363521, global = 0.0120104, cumulative = 0.0377734
smoothSolver:  Solving for epsilon, Initial residual = 0.315408, Final residual = 0.0241808, No Iterations 1
bounding epsilon, min: -22.5158 max: 14.855 average: 0.356978
smoothSolver:  Solving for k, Initial residual = 0.311261, Final residual = 0.0230576, No Iterations 1
bounding k, min: -0.675596 max: 5.78225 average: 0.0402865
ExecutionTime = 5.44 s  ClockTime = 6 s

Time = 5

smoothSolver:  Solving for Ux, Initial residual = 0.104896, Final residual = 0.00269304, No Iterations 2
smoothSolver:  Solving for Uy, Initial residual = 0.232658, Final residual = 0.0213352, No Iterations 1
smoothSolver:  Solving for Uz, Initial residual = 0.415824, Final residual = 0.0391155, No Iterations 1
GAMG:  Solving for p, Initial residual = 0.219725, Final residual = 0.0121146, No Iterations 2
time step continuity errors : sum local = 0.0376589, global = 0.011251, cumulative = 0.0490245
smoothSolver:  Solving for epsilon, Initial residual = 0.385017, Final residual = 0.0151372, No Iterations 1
bounding epsilon, min: -22.7367 max: 175.248 average: 0.505557
smoothSolver:  Solving for k, Initial residual = 0.370286, Final residual = 0.0199827, No Iterations 1
bounding k, min: -0.637775 max: 83.0412 average: 0.0583076
ExecutionTime = 7.42 s  ClockTime = 8 s

Time = 6

smoothSolver:  Solving for Ux, Initial residual = 0.0962982, Final residual = 0.00280867, No Iterations 2
smoothSolver:  Solving for Uy, Initial residual = 0.199215, Final residual = 0.0153299, No Iterations 1
smoothSolver:  Solving for Uz, Initial residual = 0.36047, Final residual = 0.0353064, No Iterations 1
GAMG:  Solving for p, Initial residual = 0.174537, Final residual = 0.00873457, No Iterations 2
time step continuity errors : sum local = 0.0314467, global = 0.00947309, cumulative = 0.0584976
smoothSolver:  Solving for epsilon, Initial residual = 0.296498, Final residual = 0.0291142, No Iterations 1
bounding epsilon, min: -23.4373 max: 471.946 average: 0.669268
smoothSolver:  Solving for k, Initial residual = 0.371929, Final residual = 0.0120601, No Iterations 2
bounding k, min: -3.86535 max: 165.266 average: 0.106275
ExecutionTime = 8.22 s  ClockTime = 9 s

Time = 7

smoothSolver:  Solving for Ux, Initial residual = 0.0915293, Final residual = 0.00256893, No Iterations 2
smoothSolver:  Solving for Uy, Initial residual = 0.198918, Final residual = 0.0144723, No Iterations 1
smoothSolver:  Solving for Uz, Initial residual = 0.298297, Final residual = 0.0280015, No Iterations 1
GAMG:  Solving for p, Initial residual = 0.153106, Final residual = 0.00334056, No Iterations 2
time step continuity errors : sum local = 0.0131928, global = -0.00385356, cumulative = 0.054644
smoothSolver:  Solving for epsilon, Initial residual = 0.280828, Final residual = 0.00873727, No Iterations 2
bounding epsilon, min: -17.6784 max: 574.062 average: 0.941358
smoothSolver:  Solving for k, Initial residual = 0.329556, Final residual = 0.0150965, No Iterations 2
bounding k, min: -1.16604 max: 159.566 average: 0.172305
ExecutionTime = 9.03 s  ClockTime = 10 s

Time = 8

smoothSolver:  Solving for Ux, Initial residual = 0.103655, Final residual = 0.00909361, No Iterations 1
smoothSolver:  Solving for Uy, Initial residual = 0.464244, Final residual = 0.0292887, No Iterations 1
smoothSolver:  Solving for Uz, Initial residual = 0.321702, Final residual = 0.0274608, No Iterations 1
GAMG:  Solving for p, Initial residual = 0.139165, Final residual = 0.00709386, No Iterations 2
time step continuity errors : sum local = 0.0301278, global = -0.00596569, cumulative = 0.0486783
smoothSolver:  Solving for epsilon, Initial residual = 0.103796, Final residual = 0.00400178, No Iterations 2
bounding epsilon, min: -21.7433 max: 651.692 average: 1.26746
smoothSolver:  Solving for k, Initial residual = 0.428753, Final residual = 0.023799, No Iterations 2
bounding k, min: -2.41319 max: 155.041 average: 0.248192
ExecutionTime = 9.83 s  ClockTime = 11 s

Time = 9

smoothSolver:  Solving for Ux, Initial residual = 0.105386, Final residual = 0.00318315, No Iterations 2
smoothSolver:  Solving for Uy, Initial residual = 0.594632, Final residual = 0.0562462, No Iterations 1
smoothSolver:  Solving for Uz, Initial residual = 0.384079, Final residual = 0.0375339, No Iterations 1
GAMG:  Solving for p, Initial residual = 0.125963, Final residual = 0.00557886, No Iterations 2
time step continuity errors : sum local = 0.0248573, global = -0.00631429, cumulative = 0.042364
smoothSolver:  Solving for epsilon, Initial residual = 0.0974076, Final residual = 0.00547268, No Iterations 1
bounding epsilon, min: -46.3354 max: 679.994 average: 1.81654
smoothSolver:  Solving for k, Initial residual = 0.312967, Final residual = 0.018016, No Iterations 2
bounding k, min: -2.66922 max: 151.124 average: 0.325859
ExecutionTime = 10.63 s  ClockTime = 12 s

Time = 10

smoothSolver:  Solving for Ux, Initial residual = 0.0914687, Final residual = 0.00279222, No Iterations 2
smoothSolver:  Solving for Uy, Initial residual = 0.656545, Final residual = 0.0500513, No Iterations 1
smoothSolver:  Solving for Uz, Initial residual = 0.737605, Final residual = 0.0152463, No Iterations 2
GAMG:  Solving for p, Initial residual = 0.111532, Final residual = 0.00257748, No Iterations 2
time step continuity errors : sum local = 0.0124846, global = -0.00224162, cumulative = 0.0401224
smoothSolver:  Solving for epsilon, Initial residual = 0.149331, Final residual = 0.00383749, No Iterations 1
bounding epsilon, min: -30.948 max: 801.805 average: 2.4199
smoothSolver:  Solving for k, Initial residual = 0.35117, Final residual = 0.0112211, No Iterations 2
bounding k, min: -3.24149 max: 140.251 average: 0.411356
ExecutionTime = 12.63 s  ClockTime = 14 s

Time = 11

smoothSolver:  Solving for Ux, Initial residual = 0.0729808, Final residual = 0.00243935, No Iterations 2
smoothSolver:  Solving for Uy, Initial residual = 0.347513, Final residual = 0.0204527, No Iterations 2
smoothSolver:  Solving for Uz, Initial residual = 0.322384, Final residual = 0.0168959, No Iterations 2
GAMG:  Solving for p, Initial residual = 0.0768118, Final residual = 0.00284628, No Iterations 2
time step continuity errors : sum local = 0.0315341, global = 0.00287924, cumulative = 0.0430016
smoothSolver:  Solving for epsilon, Initial residual = 0.122572, Final residual = 0.00372271, No Iterations 2
bounding epsilon, min: -42.6826 max: 1422.99 average: 3.22689
smoothSolver:  Solving for k, Initial residual = 0.145988, Final residual = 0.00937562, No Iterations 2
bounding k, min: -4.02999 max: 132.062 average: 0.512704
ExecutionTime = 13.47 s  ClockTime = 15 s

Time = 12

smoothSolver:  Solving for Ux, Initial residual = 0.0695599, Final residual = 0.00685476, No Iterations 1
smoothSolver:  Solving for Uy, Initial residual = 0.330523, Final residual = 0.0327631, No Iterations 1
smoothSolver:  Solving for Uz, Initial residual = 0.314807, Final residual = 0.00661638, No Iterations 2
GAMG:  Solving for p, Initial residual = 0.0719011, Final residual = 0.00314347, No Iterations 2
time step continuity errors : sum local = 0.0333179, global = 0.00444525, cumulative = 0.0474469
smoothSolver:  Solving for epsilon, Initial residual = 0.0879122, Final residual = 0.00293514, No Iterations 2
bounding epsilon, min: -24.613 max: 2381.86 average: 4.36022
smoothSolver:  Solving for k, Initial residual = 0.110888, Final residual = 0.00812454, No Iterations 2
bounding k, min: -4.81162 max: 130.288 average: 0.606032
ExecutionTime = 14.3 s  ClockTime = 16 s

Time = 13

smoothSolver:  Solving for Ux, Initial residual = 0.06754, Final residual = 0.00194699, No Iterations 2
smoothSolver:  Solving for Uy, Initial residual = 0.293577, Final residual = 0.0259349, No Iterations 1
smoothSolver:  Solving for Uz, Initial residual = 0.316121, Final residual = 0.0313551, No Iterations 1
GAMG:  Solving for p, Initial residual = 0.064893, Final residual = 0.00312452, No Iterations 2
time step continuity errors : sum local = 0.0357098, global = 0.00979422, cumulative = 0.0572411
smoothSolver:  Solving for epsilon, Initial residual = 0.0767026, Final residual = 0.00214539, No Iterations 2
bounding epsilon, min: -23.1571 max: 3191.58 average: 5.51359
smoothSolver:  Solving for k, Initial residual = 0.102632, Final residual = 0.00595496, No Iterations 2
bounding k, min: -3.30711 max: 130.619 average: 0.696069
ExecutionTime = 15.11 s  ClockTime = 17 s

Time = 14

smoothSolver:  Solving for Ux, Initial residual = 0.0803273, Final residual = 0.00777515, No Iterations 1
smoothSolver:  Solving for Uy, Initial residual = 0.306218, Final residual = 0.0275553, No Iterations 1
smoothSolver:  Solving for Uz, Initial residual = 0.315507, Final residual = 0.00822074, No Iterations 2
GAMG:  Solving for p, Initial residual = 0.059629, Final residual = 0.00281406, No Iterations 2
time step continuity errors : sum local = 0.0379598, global = -0.00297325, cumulative = 0.0542679
smoothSolver:  Solving for epsilon, Initial residual = 0.0729846, Final residual = 0.00182051, No Iterations 2
bounding epsilon, min: -22.9116 max: 3902.75 average: 6.47723
smoothSolver:  Solving for k, Initial residual = 0.113547, Final residual = 0.00542599, No Iterations 2
bounding k, min: -0.801318 max: 184.596 average: 0.810191
ExecutionTime = 15.93 s  ClockTime = 18 s

Time = 15

smoothSolver:  Solving for Ux, Initial residual = 0.0783988, Final residual = 0.00309455, No Iterations 2
smoothSolver:  Solving for Uy, Initial residual = 0.260909, Final residual = 0.0255948, No Iterations 1
smoothSolver:  Solving for Uz, Initial residual = 0.353522, Final residual = 0.00984766, No Iterations 2
GAMG:  Solving for p, Initial residual = 0.0580529, Final residual = 0.00247792, No Iterations 2
time step continuity errors : sum local = 0.0247703, global = -0.000596746, cumulative = 0.0536711
smoothSolver:  Solving for epsilon, Initial residual = 0.0608293, Final residual = 0.00172033, No Iterations 2
bounding epsilon, min: -24.7582 max: 8246.08 average: 7.81167
smoothSolver:  Solving for k, Initial residual = 0.115386, Final residual = 0.00726958, No Iterations 2
bounding k, min: -2.52888 max: 135.828 average: 0.908217
ExecutionTime = 17.93 s  ClockTime = 20 s

Time = 16

smoothSolver:  Solving for Ux, Initial residual = 0.0639014, Final residual = 0.00267322, No Iterations 2
smoothSolver:  Solving for Uy, Initial residual = 0.236153, Final residual = 0.0226881, No Iterations 1
smoothSolver:  Solving for Uz, Initial residual = 0.296121, Final residual = 0.0258178, No Iterations 1
GAMG:  Solving for p, Initial residual = 0.0515776, Final residual = 0.00211506, No Iterations 2
time step continuity errors : sum local = 0.0225458, global = -0.00471747, cumulative = 0.0489536
smoothSolver:  Solving for epsilon, Initial residual = 0.0527886, Final residual = 0.00206982, No Iterations 2
bounding epsilon, min: -24.0067 max: 3274.18 average: 8.26998
smoothSolver:  Solving for k, Initial residual = 0.0855778, Final residual = 0.00636736, No Iterations 2
bounding k, min: -0.640853 max: 137.766 average: 1.01316
ExecutionTime = 18.75 s  ClockTime = 21 s

Time = 17

smoothSolver:  Solving for Ux, Initial residual = 0.0517548, Final residual = 0.00254145, No Iterations 2
smoothSolver:  Solving for Uy, Initial residual = 0.209212, Final residual = 0.00685619, No Iterations 2
smoothSolver:  Solving for Uz, Initial residual = 0.217381, Final residual = 0.020292, No Iterations 1
GAMG:  Solving for p, Initial residual = 0.0476185, Final residual = 0.00362553, No Iterations 2
time step continuity errors : sum local = 0.0375672, global = -0.0128069, cumulative = 0.0361467
smoothSolver:  Solving for epsilon, Initial residual = 0.0490065, Final residual = 0.00190655, No Iterations 2
bounding epsilon, min: -23.7018 max: 3796.68 average: 9.16854
smoothSolver:  Solving for k, Initial residual = 0.0610035, Final residual = 0.00521362, No Iterations 2
bounding k, min: -0.873392 max: 139.445 average: 1.11048
ExecutionTime = 19.57 s  ClockTime = 22 s

Time = 18

smoothSolver:  Solving for Ux, Initial residual = 0.0452846, Final residual = 0.0020731, No Iterations 2
smoothSolver:  Solving for Uy, Initial residual = 0.217705, Final residual = 0.0201111, No Iterations 1
smoothSolver:  Solving for Uz, Initial residual = 0.23044, Final residual = 0.00825202, No Iterations 2
GAMG:  Solving for p, Initial residual = 0.0433607, Final residual = 0.00417502, No Iterations 2
time step continuity errors : sum local = 0.0407931, global = -0.0158862, cumulative = 0.0202605
smoothSolver:  Solving for epsilon, Initial residual = 0.0474927, Final residual = 0.00166342, No Iterations 2
bounding epsilon, min: -24.244 max: 3427.35 average: 10.1576
smoothSolver:  Solving for k, Initial residual = 0.0718334, Final residual = 0.00424908, No Iterations 2
bounding k, min: -0.712569 max: 141.217 average: 1.20489
ExecutionTime = 20.38 s  ClockTime = 23 s

Time = 19

smoothSolver:  Solving for Ux, Initial residual = 0.037768, Final residual = 0.00355678, No Iterations 1
smoothSolver:  Solving for Uy, Initial residual = 0.15929, Final residual = 0.00490554, No Iterations 2
smoothSolver:  Solving for Uz, Initial residual = 0.243249, Final residual = 0.016161, No Iterations 1
GAMG:  Solving for p, Initial residual = 0.0414856, Final residual = 0.00374507, No Iterations 2
time step continuity errors : sum local = 0.035677, global = -0.0142813, cumulative = 0.00597922
smoothSolver:  Solving for epsilon, Initial residual = 0.0495213, Final residual = 0.00158606, No Iterations 2
bounding epsilon, min: -23.374 max: 2770.24 average: 11.1549
smoothSolver:  Solving for k, Initial residual = 0.0633295, Final residual = 0.0039808, No Iterations 2
bounding k, min: -0.872242 max: 144.202 average: 1.30181
ExecutionTime = 21.2 s  ClockTime = 24 s

Time = 20

smoothSolver:  Solving for Ux, Initial residual = 0.0321044, Final residual = 0.00160088, No Iterations 2
smoothSolver:  Solving for Uy, Initial residual = 0.170119, Final residual = 0.00680677, No Iterations 2
smoothSolver:  Solving for Uz, Initial residual = 0.16135, Final residual = 0.00608941, No Iterations 2
GAMG:  Solving for p, Initial residual = 0.0415779, Final residual = 0.00290057, No Iterations 2
time step continuity errors : sum local = 0.0266548, global = 0.00549605, cumulative = 0.0114753
smoothSolver:  Solving for epsilon, Initial residual = 0.0388322, Final residual = 0.00132248, No Iterations 2
bounding epsilon, min: -24.1223 max: 2402.67 average: 12.2236
smoothSolver:  Solving for k, Initial residual = 0.0466291, Final residual = 0.00357838, No Iterations 2
bounding k, min: -0.919413 max: 146.677 average: 1.39967
ExecutionTime = 23.27 s  ClockTime = 26 s

Time = 21

smoothSolver:  Solving for Ux, Initial residual = 0.0320236, Final residual = 0.00156602, No Iterations 2
smoothSolver:  Solving for Uy, Initial residual = 0.181819, Final residual = 0.00660565, No Iterations 2
smoothSolver:  Solving for Uz, Initial residual = 0.159798, Final residual = 0.00724953, No Iterations 2
GAMG:  Solving for p, Initial residual = 0.0441657, Final residual = 0.00298354, No Iterations 2
time step continuity errors : sum local = 0.0253464, global = 0.00299495, cumulative = 0.0144702
smoothSolver:  Solving for epsilon, Initial residual = 0.0386696, Final residual = 0.00127283, No Iterations 2
bounding epsilon, min: -19.5203 max: 2140.75 average: 13.3999
smoothSolver:  Solving for k, Initial residual = 0.0430095, Final residual = 0.00306759, No Iterations 2
bounding k, min: -1.01854 max: 148.29 average: 1.50238
ExecutionTime = 24.18 s  ClockTime = 27 s

Time = 22

smoothSolver:  Solving for Ux, Initial residual = 0.0272318, Final residual = 0.0014295, No Iterations 2
smoothSolver:  Solving for Uy, Initial residual = 0.157391, Final residual = 0.00539487, No Iterations 2
smoothSolver:  Solving for Uz, Initial residual = 0.140728, Final residual = 0.0056231, No Iterations 2
GAMG:  Solving for p, Initial residual = 0.0406987, Final residual = 0.00245663, No Iterations 2
time step continuity errors : sum local = 0.0200055, global = 0.00327789, cumulative = 0.0177481
smoothSolver:  Solving for epsilon, Initial residual = 0.0337573, Final residual = 0.00113337, No Iterations 2
bounding epsilon, min: -13.7374 max: 1885.8 average: 14.6237
smoothSolver:  Solving for k, Initial residual = 0.0348238, Final residual = 0.0027199, No Iterations 2
bounding k, min: -1.01176 max: 149.351 average: 1.60518
ExecutionTime = 25.02 s  ClockTime = 28 s

Time = 23

smoothSolver:  Solving for Ux, Initial residual = 0.0236855, Final residual = 0.001396, No Iterations 2
smoothSolver:  Solving for Uy, Initial residual = 0.134401, Final residual = 0.00500293, No Iterations 2
smoothSolver:  Solving for Uz, Initial residual = 0.118611, Final residual = 0.00601806, No Iterations 2
GAMG:  Solving for p, Initial residual = 0.0384679, Final residual = 0.00210529, No Iterations 2
time step continuity errors : sum local = 0.0164546, global = 0.00368368, cumulative = 0.0214318
smoothSolver:  Solving for epsilon, Initial residual = 0.0316664, Final residual = 0.00103915, No Iterations 2
bounding epsilon, min: -14.3892 max: 1890.87 average: 15.9097
smoothSolver:  Solving for k, Initial residual = 0.0289264, Final residual = 0.00224888, No Iterations 2
bounding k, min: -1.08653 max: 150.403 average: 1.70861
ExecutionTime = 25.87 s  ClockTime = 29 s

Time = 24

smoothSolver:  Solving for Ux, Initial residual = 0.0240284, Final residual = 0.00151612, No Iterations 2
smoothSolver:  Solving for Uy, Initial residual = 0.140613, Final residual = 0.00601035, No Iterations 2
smoothSolver:  Solving for Uz, Initial residual = 0.128178, Final residual = 0.00636429, No Iterations 2
GAMG:  Solving for p, Initial residual = 0.0368098, Final residual = 0.00206603, No Iterations 2
time step continuity errors : sum local = 0.0155855, global = 0.00358752, cumulative = 0.0250193
smoothSolver:  Solving for epsilon, Initial residual = 0.029112, Final residual = 0.000948432, No Iterations 2
bounding epsilon, min: -14.7135 max: 1877.53 average: 17.179
smoothSolver:  Solving for k, Initial residual = 0.027511, Final residual = 0.00217271, No Iterations 2
bounding k, min: -1.02639 max: 151.301 average: 1.81181
ExecutionTime = 26.7 s  ClockTime = 30 s

Time = 25

smoothSolver:  Solving for Ux, Initial residual = 0.0268726, Final residual = 0.00167572, No Iterations 2
smoothSolver:  Solving for Uy, Initial residual = 0.159366, Final residual = 0.0078435, No Iterations 2
smoothSolver:  Solving for Uz, Initial residual = 0.192319, Final residual = 0.00834729, No Iterations 2
GAMG:  Solving for p, Initial residual = 0.035461, Final residual = 0.00195189, No Iterations 2
time step continuity errors : sum local = 0.0142376, global = 0.002956, cumulative = 0.0279753
smoothSolver:  Solving for epsilon, Initial residual = 0.0280418, Final residual = 0.000847741, No Iterations 2
bounding epsilon, min: -14.2442 max: 1924.17 average: 18.5127
smoothSolver:  Solving for k, Initial residual = 0.0328524, Final residual = 0.00195215, No Iterations 2
bounding k, min: -1.00081 max: 151.902 average: 1.91591
ExecutionTime = 28.69 s  ClockTime = 32 s

Time = 26

smoothSolver:  Solving for Ux, Initial residual = 0.0237026, Final residual = 0.00178084, No Iterations 2
smoothSolver:  Solving for Uy, Initial residual = 0.146781, Final residual = 0.00871884, No Iterations 2
smoothSolver:  Solving for Uz, Initial residual = 0.126502, Final residual = 0.00607251, No Iterations 2
GAMG:  Solving for p, Initial residual = 0.0342217, Final residual = 0.00167741, No Iterations 2
time step continuity errors : sum local = 0.0118291, global = 0.00203435, cumulative = 0.0300097
smoothSolver:  Solving for epsilon, Initial residual = 0.0252295, Final residual = 0.000756985, No Iterations 2
bounding epsilon, min: -13.0794 max: 2029.93 average: 19.7993
smoothSolver:  Solving for k, Initial residual = 0.026566, Final residual = 0.00206969, No Iterations 2
bounding k, min: -0.803934 max: 154.514 average: 2.02151
ExecutionTime = 29.51 s  ClockTime = 33 s

Time = 27

smoothSolver:  Solving for Ux, Initial residual = 0.0215753, Final residual = 0.00172199, No Iterations 2
smoothSolver:  Solving for Uy, Initial residual = 0.137919, Final residual = 0.00898836, No Iterations 2
smoothSolver:  Solving for Uz, Initial residual = 0.145419, Final residual = 0.00820755, No Iterations 2
GAMG:  Solving for p, Initial residual = 0.0328483, Final residual = 0.00125776, No Iterations 2
time step continuity errors : sum local = 0.00861375, global = 0.000162007, cumulative = 0.0301717
smoothSolver:  Solving for epsilon, Initial residual = 0.0241919, Final residual = 0.000746999, No Iterations 2
bounding epsilon, min: -11.6729 max: 2107.66 average: 21.0641
smoothSolver:  Solving for k, Initial residual = 0.0254185, Final residual = 0.00176128, No Iterations 2
bounding k, min: -0.632252 max: 158.302 average: 2.12887
ExecutionTime = 30.38 s  ClockTime = 34 s

Time = 28

smoothSolver:  Solving for Ux, Initial residual = 0.0206153, Final residual = 0.00181664, No Iterations 2
smoothSolver:  Solving for Uy, Initial residual = 0.131799, Final residual = 0.0105509, No Iterations 2
smoothSolver:  Solving for Uz, Initial residual = 0.11136, Final residual = 0.00569435, No Iterations 2
GAMG:  Solving for p, Initial residual = 0.0318193, Final residual = 0.00103987, No Iterations 2
time step continuity errors : sum local = 0.006894, global = -0.00126492, cumulative = 0.0289067
smoothSolver:  Solving for epsilon, Initial residual = 0.0204099, Final residual = 0.000677041, No Iterations 2
bounding epsilon, min: -9.35055 max: 2150.98 average: 22.3344
smoothSolver:  Solving for k, Initial residual = 0.0215671, Final residual = 0.00190446, No Iterations 2
bounding k, min: -0.430407 max: 160.898 average: 2.23731
ExecutionTime = 31.27 s  ClockTime = 35 s

Time = 29

smoothSolver:  Solving for Ux, Initial residual = 0.0189775, Final residual = 0.00174479, No Iterations 2
smoothSolver:  Solving for Uy, Initial residual = 0.119546, Final residual = 0.0108871, No Iterations 2
smoothSolver:  Solving for Uz, Initial residual = 0.104613, Final residual = 0.00554178, No Iterations 2
GAMG:  Solving for p, Initial residual = 0.0312944, Final residual = 0.00120648, No Iterations 2
time step continuity errors : sum local = 0.0077636, global = -0.0018701, cumulative = 0.0270366
smoothSolver:  Solving for epsilon, Initial residual = 0.0218746, Final residual = 0.000636821, No Iterations 2
bounding epsilon, min: -6.48942 max: 2170.94 average: 23.559
smoothSolver:  Solving for k, Initial residual = 0.0181345, Final residual = 0.00161694, No Iterations 2
bounding k, min: -0.412669 max: 162.379 average: 2.34639
ExecutionTime = 32.1 s  ClockTime = 36 s

Time = 30

smoothSolver:  Solving for Ux, Initial residual = 0.0178969, Final residual = 0.00175179, No Iterations 2
smoothSolver:  Solving for Uy, Initial residual = 0.106319, Final residual = 0.0071464, No Iterations 3
smoothSolver:  Solving for Uz, Initial residual = 0.083717, Final residual = 0.00557015, No Iterations 2
GAMG:  Solving for p, Initial residual = 0.0308008, Final residual = 0.000986152, No Iterations 2
time step continuity errors : sum local = 0.00612562, global = -0.00166853, cumulative = 0.0253681
smoothSolver:  Solving for epsilon, Initial residual = 0.026887, Final residual = 0.000624021, No Iterations 2
bounding epsilon, min: -5.38209 max: 2165.12 average: 24.7189
smoothSolver:  Solving for k, Initial residual = 0.0173145, Final residual = 0.00167977, No Iterations 2
bounding k, min: -0.409927 max: 163.137 average: 2.4569
ExecutionTime = 34.1 s  ClockTime = 38 s

Time = 31

smoothSolver:  Solving for Ux, Initial residual = 0.0180255, Final residual = 0.00177927, No Iterations 2
smoothSolver:  Solving for Uy, Initial residual = 0.103237, Final residual = 0.00697583, No Iterations 3
smoothSolver:  Solving for Uz, Initial residual = 0.0763771, Final residual = 0.0055031, No Iterations 2
GAMG:  Solving for p, Initial residual = 0.0303994, Final residual = 0.000787624, No Iterations 2
time step continuity errors : sum local = 0.00473828, global = -0.000925276, cumulative = 0.0244428
smoothSolver:  Solving for epsilon, Initial residual = 0.0166263, Final residual = 0.000620501, No Iterations 2
bounding epsilon, min: -5.33252 max: 2157.31 average: 25.8415
smoothSolver:  Solving for k, Initial residual = 0.017326, Final residual = 0.000826919, No Iterations 3
bounding k, min: -0.390851 max: 163.219 average: 2.57169
ExecutionTime = 34.94 s  ClockTime = 39 s

Time = 32

smoothSolver:  Solving for Ux, Initial residual = 0.018474, Final residual = 0.00179212, No Iterations 2
smoothSolver:  Solving for Uy, Initial residual = 0.0982512, Final residual = 0.00629014, No Iterations 3
smoothSolver:  Solving for Uz, Initial residual = 0.0743984, Final residual = 0.00520452, No Iterations 2
GAMG:  Solving for p, Initial residual = 0.0302948, Final residual = 0.000821465, No Iterations 2
time step continuity errors : sum local = 0.00477832, global = -0.000110241, cumulative = 0.0243326
smoothSolver:  Solving for epsilon, Initial residual = 0.0160292, Final residual = 0.00061104, No Iterations 2
bounding epsilon, min: -5.44398 max: 2140.14 average: 26.9159
smoothSolver:  Solving for k, Initial residual = 0.0176451, Final residual = 0.00082976, No Iterations 3
bounding k, min: -0.460382 max: 162.829 average: 2.69395
ExecutionTime = 35.78 s  ClockTime = 40 s

Time = 33

smoothSolver:  Solving for Ux, Initial residual = 0.0190518, Final residual = 0.00179567, No Iterations 2
smoothSolver:  Solving for Uy, Initial residual = 0.0926246, Final residual = 0.00860406, No Iterations 2
smoothSolver:  Solving for Uz, Initial residual = 0.0730055, Final residual = 0.00473594, No Iterations 2
GAMG:  Solving for p, Initial residual = 0.0303699, Final residual = 0.000787483, No Iterations 2
time step continuity errors : sum local = 0.00442818, global = 0.000736536, cumulative = 0.0250691
smoothSolver:  Solving for epsilon, Initial residual = 0.0157804, Final residual = 0.00060066, No Iterations 2
bounding epsilon, min: -5.32476 max: 2125.87 average: 28.0302
smoothSolver:  Solving for k, Initial residual = 0.0172659, Final residual = 0.00172389, No Iterations 2
bounding k, min: -0.442747 max: 162.359 average: 2.80781
ExecutionTime = 36.61 s  ClockTime = 41 s

Time = 34

smoothSolver:  Solving for Ux, Initial residual = 0.0195235, Final residual = 0.00178036, No Iterations 2
smoothSolver:  Solving for Uy, Initial residual = 0.0885299, Final residual = 0.0068087, No Iterations 2
smoothSolver:  Solving for Uz, Initial residual = 0.0721004, Final residual = 0.00409893, No Iterations 2
GAMG:  Solving for p, Initial residual = 0.03033, Final residual = 0.00094665, No Iterations 2
time step continuity errors : sum local = 0.00515502, global = 0.00140635, cumulative = 0.0264755
smoothSolver:  Solving for epsilon, Initial residual = 0.0145579, Final residual = 0.000563983, No Iterations 2
bounding epsilon, min: -5.07897 max: 2118.08 average: 28.9832
smoothSolver:  Solving for k, Initial residual = 0.0163795, Final residual = 0.00158191, No Iterations 2
bounding k, min: -0.385551 max: 161.493 average: 2.91289
ExecutionTime = 37.44 s  ClockTime = 42 s

Time = 35

smoothSolver:  Solving for Ux, Initial residual = 0.0199091, Final residual = 0.00176401, No Iterations 2
smoothSolver:  Solving for Uy, Initial residual = 0.0849847, Final residual = 0.00491212, No Iterations 2
smoothSolver:  Solving for Uz, Initial residual = 0.070967, Final residual = 0.00337879, No Iterations 2
GAMG:  Solving for p, Initial residual = 0.0301174, Final residual = 0.00100657, No Iterations 2
time step continuity errors : sum local = 0.00531504, global = 0.00163673, cumulative = 0.0281122
smoothSolver:  Solving for epsilon, Initial residual = 0.013185, Final residual = 0.000512597, No Iterations 2
bounding epsilon, min: -4.93641 max: 2116.52 average: 29.7762
smoothSolver:  Solving for k, Initial residual = 0.0150972, Final residual = 0.00137759, No Iterations 2
bounding k, min: -0.339607 max: 160.366 average: 3.00896
ExecutionTime = 39.42 s  ClockTime = 44 s

Time = 36

smoothSolver:  Solving for Ux, Initial residual = 0.0207245, Final residual = 0.00174123, No Iterations 2
smoothSolver:  Solving for Uy, Initial residual = 0.0827257, Final residual = 0.003215, No Iterations 2
smoothSolver:  Solving for Uz, Initial residual = 0.0695864, Final residual = 0.00268643, No Iterations 2
GAMG:  Solving for p, Initial residual = 0.0299783, Final residual = 0.000940302, No Iterations 2
time step continuity errors : sum local = 0.00481339, global = 0.0014494, cumulative = 0.0295616
smoothSolver:  Solving for epsilon, Initial residual = 0.0120561, Final residual = 0.000471002, No Iterations 2
bounding epsilon, min: -4.26189 max: 2119.7 average: 30.424
smoothSolver:  Solving for k, Initial residual = 0.0139577, Final residual = 0.00116002, No Iterations 2
bounding k, min: -0.239172 max: 158.957 average: 3.09969
ExecutionTime = 40.25 s  ClockTime = 45 s

Time = 37

smoothSolver:  Solving for Ux, Initial residual = 0.0216377, Final residual = 0.00170502, No Iterations 2
smoothSolver:  Solving for Uy, Initial residual = 0.0810097, Final residual = 0.00669728, No Iterations 1
smoothSolver:  Solving for Uz, Initial residual = 0.0675177, Final residual = 0.00202827, No Iterations 2
GAMG:  Solving for p, Initial residual = 0.0294774, Final residual = 0.000762119, No Iterations 2
time step continuity errors : sum local = 0.0037875, global = 0.000944388, cumulative = 0.030506
smoothSolver:  Solving for epsilon, Initial residual = 0.011346, Final residual = 0.000446462, No Iterations 2
bounding epsilon, min: -3.79199 max: 2122.72 average: 30.9885
smoothSolver:  Solving for k, Initial residual = 0.0126436, Final residual = 0.000958266, No Iterations 2
bounding k, min: -0.16755 max: 157.368 average: 3.18514
ExecutionTime = 41.06 s  ClockTime = 46 s

Time = 38

smoothSolver:  Solving for Ux, Initial residual = 0.0221487, Final residual = 0.00165336, No Iterations 2
smoothSolver:  Solving for Uy, Initial residual = 0.0797323, Final residual = 0.00617077, No Iterations 1
smoothSolver:  Solving for Uz, Initial residual = 0.0644779, Final residual = 0.00571736, No Iterations 1
GAMG:  Solving for p, Initial residual = 0.028779, Final residual = 0.000802192, No Iterations 2
time step continuity errors : sum local = 0.00386586, global = -0.000331324, cumulative = 0.0301747
smoothSolver:  Solving for epsilon, Initial residual = 0.0106642, Final residual = 0.000434078, No Iterations 2
bounding epsilon, min: -2.74598 max: 2130.77 average: 31.4708
smoothSolver:  Solving for k, Initial residual = 0.011414, Final residual = 0.00080722, No Iterations 2
bounding k, min: -0.137128 max: 155.705 average: 3.26639
ExecutionTime = 41.87 s  ClockTime = 47 s

Time = 39

smoothSolver:  Solving for Ux, Initial residual = 0.0224054, Final residual = 0.00159819, No Iterations 2
smoothSolver:  Solving for Uy, Initial residual = 0.0764958, Final residual = 0.00597947, No Iterations 1
smoothSolver:  Solving for Uz, Initial residual = 0.0616638, Final residual = 0.00524283, No Iterations 1
GAMG:  Solving for p, Initial residual = 0.0282122, Final residual = 0.000987355, No Iterations 2
time step continuity errors : sum local = 0.00461173, global = -0.000416883, cumulative = 0.0297578
smoothSolver:  Solving for epsilon, Initial residual = 0.0104496, Final residual = 0.000410821, No Iterations 2
bounding epsilon, min: -1.95294 max: 2131.46 average: 31.9054
smoothSolver:  Solving for k, Initial residual = 0.0104729, Final residual = 0.000705539, No Iterations 2
bounding k, min: -0.156314 max: 154.049 average: 3.34505
ExecutionTime = 42.67 s  ClockTime = 48 s

Time = 40

smoothSolver:  Solving for Ux, Initial residual = 0.0214058, Final residual = 0.00151346, No Iterations 2
smoothSolver:  Solving for Uy, Initial residual = 0.0718, Final residual = 0.00614775, No Iterations 1
smoothSolver:  Solving for Uz, Initial residual = 0.057429, Final residual = 0.00467015, No Iterations 1
GAMG:  Solving for p, Initial residual = 0.0269753, Final residual = 0.000950922, No Iterations 2
time step continuity errors : sum local = 0.00430257, global = -0.000465768, cumulative = 0.029292
smoothSolver:  Solving for epsilon, Initial residual = 0.00964625, Final residual = 0.00039077, No Iterations 2
bounding epsilon, min: -1.33704 max: 2137.2 average: 32.2828
smoothSolver:  Solving for k, Initial residual = 0.00982683, Final residual = 0.000637572, No Iterations 2
bounding k, min: -0.0861846 max: 152.448 average: 3.41844
ExecutionTime = 44.67 s  ClockTime = 50 s

Time = 41

smoothSolver:  Solving for Ux, Initial residual = 0.0203989, Final residual = 0.00143785, No Iterations 2
smoothSolver:  Solving for Uy, Initial residual = 0.0680656, Final residual = 0.00644686, No Iterations 1
smoothSolver:  Solving for Uz, Initial residual = 0.053763, Final residual = 0.0043065, No Iterations 1
GAMG:  Solving for p, Initial residual = 0.025801, Final residual = 0.000892386, No Iterations 2
time step continuity errors : sum local = 0.00391226, global = -0.000501866, cumulative = 0.0287902
smoothSolver:  Solving for epsilon, Initial residual = 0.00924826, Final residual = 0.000379962, No Iterations 2
bounding epsilon, min: -0.50404 max: 2128.25 average: 32.6153
smoothSolver:  Solving for k, Initial residual = 0.0091134, Final residual = 0.000593066, No Iterations 2
bounding k, min: -0.0946328 max: 150.965 average: 3.488
ExecutionTime = 45.48 s  ClockTime = 51 s

Time = 42

smoothSolver:  Solving for Ux, Initial residual = 0.0193088, Final residual = 0.00136153, No Iterations 2
smoothSolver:  Solving for Uy, Initial residual = 0.0642531, Final residual = 0.00211888, No Iterations 2
smoothSolver:  Solving for Uz, Initial residual = 0.0505971, Final residual = 0.00402786, No Iterations 1
GAMG:  Solving for p, Initial residual = 0.0248614, Final residual = 0.000675161, No Iterations 2
time step continuity errors : sum local = 0.00287205, global = -0.000549628, cumulative = 0.0282405
smoothSolver:  Solving for epsilon, Initial residual = 0.0087313, Final residual = 0.000367134, No Iterations 2
bounding epsilon, min: -0.697693 max: 2131.05 average: 32.8998
smoothSolver:  Solving for k, Initial residual = 0.00863715, Final residual = 0.000560754, No Iterations 2
bounding k, min: -0.118777 max: 149.784 average: 3.55322
ExecutionTime = 46.29 s  ClockTime = 52 s

Time = 43

smoothSolver:  Solving for Ux, Initial residual = 0.018057, Final residual = 0.00126925, No Iterations 2
smoothSolver:  Solving for Uy, Initial residual = 0.0598184, Final residual = 0.00586676, No Iterations 1
smoothSolver:  Solving for Uz, Initial residual = 0.0471668, Final residual = 0.00377312, No Iterations 1
GAMG:  Solving for p, Initial residual = 0.0234596, Final residual = 0.000665609, No Iterations 2
time step continuity errors : sum local = 0.00275135, global = -0.000584721, cumulative = 0.0276558
smoothSolver:  Solving for epsilon, Initial residual = 0.00839169, Final residual = 0.000355668, No Iterations 2
bounding epsilon, min: -0.895645 max: 2128.22 average: 33.1678
smoothSolver:  Solving for k, Initial residual = 0.008165, Final residual = 0.000526074, No Iterations 2
bounding k, min: -0.132469 max: 148.786 average: 3.61492
ExecutionTime = 47.1 s  ClockTime = 53 s

Time = 44

smoothSolver:  Solving for Ux, Initial residual = 0.0169184, Final residual = 0.0011811, No Iterations 2
smoothSolver:  Solving for Uy, Initial residual = 0.0551481, Final residual = 0.00549804, No Iterations 1
smoothSolver:  Solving for Uz, Initial residual = 0.0440853, Final residual = 0.00351128, No Iterations 1
GAMG:  Solving for p, Initial residual = 0.0223985, Final residual = 0.000660763, No Iterations 2
time step continuity errors : sum local = 0.00265645, global = -0.000659457, cumulative = 0.0269964
smoothSolver:  Solving for epsilon, Initial residual = 0.00798957, Final residual = 0.000342498, No Iterations 2
bounding epsilon, min: -1.14783 max: 2125.33 average: 33.4206
smoothSolver:  Solving for k, Initial residual = 0.00766624, Final residual = 0.000503645, No Iterations 2
bounding k, min: -0.147604 max: 148.003 average: 3.67305
ExecutionTime = 47.92 s  ClockTime = 53 s

Time = 45

smoothSolver:  Solving for Ux, Initial residual = 0.0158997, Final residual = 0.00109704, No Iterations 2
smoothSolver:  Solving for Uy, Initial residual = 0.0498109, Final residual = 0.00493118, No Iterations 1
smoothSolver:  Solving for Uz, Initial residual = 0.0410387, Final residual = 0.0032593, No Iterations 1
GAMG:  Solving for p, Initial residual = 0.0216385, Final residual = 0.000648503, No Iterations 2
time step continuity errors : sum local = 0.00253714, global = -0.000724369, cumulative = 0.026272
smoothSolver:  Solving for epsilon, Initial residual = 0.00768647, Final residual = 0.00033384, No Iterations 2
bounding epsilon, min: -0.581637 max: 2128.2 average: 33.6604
smoothSolver:  Solving for k, Initial residual = 0.00725095, Final residual = 0.000488242, No Iterations 2
bounding k, min: -0.144206 max: 147.42 average: 3.72773
ExecutionTime = 49.99 s  ClockTime = 56 s

Time = 46

smoothSolver:  Solving for Ux, Initial residual = 0.0150118, Final residual = 0.00101817, No Iterations 2
smoothSolver:  Solving for Uy, Initial residual = 0.0448402, Final residual = 0.00432732, No Iterations 1
smoothSolver:  Solving for Uz, Initial residual = 0.0380614, Final residual = 0.00301118, No Iterations 1
GAMG:  Solving for p, Initial residual = 0.0211414, Final residual = 0.000592471, No Iterations 2
time step continuity errors : sum local = 0.00225753, global = -0.00070128, cumulative = 0.0255707
smoothSolver:  Solving for epsilon, Initial residual = 0.00732474, Final residual = 0.000325519, No Iterations 2
bounding epsilon, min: -1.28378 max: 2135.57 average: 33.8801
smoothSolver:  Solving for k, Initial residual = 0.00693666, Final residual = 0.000474025, No Iterations 2
bounding k, min: -0.157563 max: 147 average: 3.77904
ExecutionTime = 50.8 s  ClockTime = 57 s

Time = 47

smoothSolver:  Solving for Ux, Initial residual = 0.0142773, Final residual = 0.000948754, No Iterations 2
smoothSolver:  Solving for Uy, Initial residual = 0.0404228, Final residual = 0.00374013, No Iterations 1
smoothSolver:  Solving for Uz, Initial residual = 0.0352783, Final residual = 0.00278113, No Iterations 1
GAMG:  Solving for p, Initial residual = 0.0207222, Final residual = 0.000592856, No Iterations 2
time step continuity errors : sum local = 0.0022021, global = 0.00042289, cumulative = 0.0259936
smoothSolver:  Solving for epsilon, Initial residual = 0.0072149, Final residual = 0.000321015, No Iterations 2
bounding epsilon, min: -0.769386 max: 2144.99 average: 34.0901
smoothSolver:  Solving for k, Initial residual = 0.0067552, Final residual = 0.000465868, No Iterations 2
bounding k, min: -0.146374 max: 146.734 average: 3.82706
ExecutionTime = 51.63 s  ClockTime = 58 s

Time = 48

smoothSolver:  Solving for Ux, Initial residual = 0.0136715, Final residual = 0.000881716, No Iterations 2
smoothSolver:  Solving for Uy, Initial residual = 0.0364998, Final residual = 0.003224, No Iterations 1
smoothSolver:  Solving for Uz, Initial residual = 0.0328021, Final residual = 0.00259263, No Iterations 1
GAMG:  Solving for p, Initial residual = 0.0205647, Final residual = 0.000572838, No Iterations 2
time step continuity errors : sum local = 0.00207396, global = 0.000180504, cumulative = 0.0261741
smoothSolver:  Solving for epsilon, Initial residual = 0.00705013, Final residual = 0.000324315, No Iterations 2
bounding epsilon, min: -1.24413 max: 2157.4 average: 34.2887
smoothSolver:  Solving for k, Initial residual = 0.0065813, Final residual = 0.000459941, No Iterations 2
bounding k, min: -0.165913 max: 146.563 average: 3.87359
ExecutionTime = 52.49 s  ClockTime = 59 s

Time = 49

smoothSolver:  Solving for Ux, Initial residual = 0.0130839, Final residual = 0.00085434, No Iterations 2
smoothSolver:  Solving for Uy, Initial residual = 0.0328964, Final residual = 0.00276373, No Iterations 1
smoothSolver:  Solving for Uz, Initial residual = 0.0303464, Final residual = 0.00242375, No Iterations 1
GAMG:  Solving for p, Initial residual = 0.0199141, Final residual = 0.000572797, No Iterations 2
time step continuity errors : sum local = 0.00202661, global = 9.69855e-05, cumulative = 0.0262711
smoothSolver:  Solving for epsilon, Initial residual = 0.00706841, Final residual = 0.000322303, No Iterations 2
bounding epsilon, min: -0.920523 max: 2165.9 average: 34.4742
smoothSolver:  Solving for k, Initial residual = 0.00655434, Final residual = 0.00045465, No Iterations 2
bounding k, min: -0.156273 max: 146.47 average: 3.91828
ExecutionTime = 53.36 s  ClockTime = 60 s

Time = 50

smoothSolver:  Solving for Ux, Initial residual = 0.0127376, Final residual = 0.00083192, No Iterations 2
smoothSolver:  Solving for Uy, Initial residual = 0.0302169, Final residual = 0.00242611, No Iterations 1
smoothSolver:  Solving for Uz, Initial residual = 0.0283155, Final residual = 0.00229355, No Iterations 1
GAMG:  Solving for p, Initial residual = 0.019311, Final residual = 0.000553408, No Iterations 2
time step continuity errors : sum local = 0.00191599, global = 8.54463e-05, cumulative = 0.0263565
smoothSolver:  Solving for epsilon, Initial residual = 0.00707174, Final residual = 0.00032418, No Iterations 2
bounding epsilon, min: -1.37841 max: 2180.69 average: 34.6526
smoothSolver:  Solving for k, Initial residual = 0.00645404, Final residual = 0.000450596, No Iterations 2
bounding k, min: -0.162838 max: 146.421 average: 3.9621
ExecutionTime = 55.36 s  ClockTime = 62 s

Time = 51

smoothSolver:  Solving for Ux, Initial residual = 0.0124333, Final residual = 0.000812316, No Iterations 2
smoothSolver:  Solving for Uy, Initial residual = 0.0283128, Final residual = 0.00217554, No Iterations 1
smoothSolver:  Solving for Uz, Initial residual = 0.0265348, Final residual = 0.00219806, No Iterations 1
GAMG:  Solving for p, Initial residual = 0.0187806, Final residual = 0.000560239, No Iterations 2
time step continuity errors : sum local = 0.00189886, global = 0.000124591, cumulative = 0.0264811
smoothSolver:  Solving for epsilon, Initial residual = 0.00708104, Final residual = 0.000329983, No Iterations 2
bounding epsilon, min: -1.00154 max: 2183.55 average: 34.8259
smoothSolver:  Solving for k, Initial residual = 0.00646637, Final residual = 0.000446511, No Iterations 2
bounding k, min: -0.161867 max: 146.399 average: 4.00451
ExecutionTime = 56.18 s  ClockTime = 63 s

Time = 52

smoothSolver:  Solving for Ux, Initial residual = 0.0122417, Final residual = 0.000802801, No Iterations 2
smoothSolver:  Solving for Uy, Initial residual = 0.0266638, Final residual = 0.00199227, No Iterations 1
smoothSolver:  Solving for Uz, Initial residual = 0.0253712, Final residual = 0.00226052, No Iterations 1
GAMG:  Solving for p, Initial residual = 0.0184413, Final residual = 0.000576349, No Iterations 2
time step continuity errors : sum local = 0.00191459, global = 0.000162968, cumulative = 0.0266441
smoothSolver:  Solving for epsilon, Initial residual = 0.00712903, Final residual = 0.000332585, No Iterations 2
bounding epsilon, min: -0.608169 max: 2197.53 average: 34.9923
smoothSolver:  Solving for k, Initial residual = 0.00641959, Final residual = 0.000444411, No Iterations 2
bounding k, min: -0.163663 max: 146.41 average: 4.04629
ExecutionTime = 56.99 s  ClockTime = 64 s

Time = 53

smoothSolver:  Solving for Ux, Initial residual = 0.0118575, Final residual = 0.000773386, No Iterations 2
smoothSolver:  Solving for Uy, Initial residual = 0.0255685, Final residual = 0.00183375, No Iterations 1
smoothSolver:  Solving for Uz, Initial residual = 0.0239492, Final residual = 0.00205475, No Iterations 1
GAMG:  Solving for p, Initial residual = 0.0178457, Final residual = 0.000546447, No Iterations 2
time step continuity errors : sum local = 0.00178035, global = 0.000166686, cumulative = 0.0268108
smoothSolver:  Solving for epsilon, Initial residual = 0.0071618, Final residual = 0.000338309, No Iterations 2
bounding epsilon, min: -1.10318 max: 2204.42 average: 35.1553
smoothSolver:  Solving for k, Initial residual = 0.00642637, Final residual = 0.000442396, No Iterations 2
bounding k, min: -0.221278 max: 146.427 average: 4.08714
ExecutionTime = 57.8 s  ClockTime = 65 s

Time = 54

smoothSolver:  Solving for Ux, Initial residual = 0.0115143, Final residual = 0.000752561, No Iterations 2
smoothSolver:  Solving for Uy, Initial residual = 0.0241431, Final residual = 0.00169572, No Iterations 1
smoothSolver:  Solving for Uz, Initial residual = 0.0223375, Final residual = 0.00199159, No Iterations 1
GAMG:  Solving for p, Initial residual = 0.0173583, Final residual = 0.000557204, No Iterations 2
time step continuity errors : sum local = 0.00178216, global = 0.00015675, cumulative = 0.0269675
smoothSolver:  Solving for epsilon, Initial residual = 0.00728647, Final residual = 0.000341932, No Iterations 2
bounding epsilon, min: -0.622121 max: 2212.73 average: 35.3126
smoothSolver:  Solving for k, Initial residual = 0.00638899, Final residual = 0.000441704, No Iterations 2
bounding k, min: -0.167883 max: 146.469 average: 4.12777
ExecutionTime = 58.62 s  ClockTime = 66 s

Time = 55

smoothSolver:  Solving for Ux, Initial residual = 0.0112539, Final residual = 0.000733423, No Iterations 2
smoothSolver:  Solving for Uy, Initial residual = 0.0230438, Final residual = 0.00161021, No Iterations 1
smoothSolver:  Solving for Uz, Initial residual = 0.0211318, Final residual = 0.0019368, No Iterations 1
GAMG:  Solving for p, Initial residual = 0.0169742, Final residual = 0.000564746, No Iterations 2
time step continuity errors : sum local = 0.00177388, global = 0.000149854, cumulative = 0.0271174
smoothSolver:  Solving for epsilon, Initial residual = 0.00729662, Final residual = 0.000348159, No Iterations 2
bounding epsilon, min: -0.979434 max: 2217.92 average: 35.4694
smoothSolver:  Solving for k, Initial residual = 0.00636921, Final residual = 0.00044085, No Iterations 2
bounding k, min: -0.167067 max: 146.508 average: 4.16774
ExecutionTime = 60.59 s  ClockTime = 68 s

Time = 56

smoothSolver:  Solving for Ux, Initial residual = 0.0110077, Final residual = 0.000715934, No Iterations 2
smoothSolver:  Solving for Uy, Initial residual = 0.0219524, Final residual = 0.00155256, No Iterations 1
smoothSolver:  Solving for Uz, Initial residual = 0.0201049, Final residual = 0.00190032, No Iterations 1
GAMG:  Solving for p, Initial residual = 0.0166084, Final residual = 0.000558457, No Iterations 2
time step continuity errors : sum local = 0.00172409, global = 0.000138311, cumulative = 0.0272557
smoothSolver:  Solving for epsilon, Initial residual = 0.00748972, Final residual = 0.00034532, No Iterations 2
bounding epsilon, min: -0.927865 max: 2226.98 average: 35.6182
smoothSolver:  Solving for k, Initial residual = 0.00635023, Final residual = 0.000439424, No Iterations 2
bounding k, min: -0.170555 max: 146.567 average: 4.207
ExecutionTime = 61.4 s  ClockTime = 69 s

Time = 57

smoothSolver:  Solving for Ux, Initial residual = 0.0108045, Final residual = 0.000699215, No Iterations 2
smoothSolver:  Solving for Uy, Initial residual = 0.0211193, Final residual = 0.00150673, No Iterations 1
smoothSolver:  Solving for Uz, Initial residual = 0.0192124, Final residual = 0.0018544, No Iterations 1
GAMG:  Solving for p, Initial residual = 0.016314, Final residual = 0.000545503, No Iterations 2
time step continuity errors : sum local = 0.00165578, global = 0.000125104, cumulative = 0.0273808
smoothSolver:  Solving for epsilon, Initial residual = 0.00745239, Final residual = 0.000351807, No Iterations 2
bounding epsilon, min: -0.856382 max: 2238.01 average: 35.7712
smoothSolver:  Solving for k, Initial residual = 0.00633938, Final residual = 0.000438241, No Iterations 2
bounding k, min: -0.169365 max: 146.606 average: 4.24591
ExecutionTime = 62.21 s  ClockTime = 70 s

Time = 58

smoothSolver:  Solving for Ux, Initial residual = 0.0106006, Final residual = 0.000683733, No Iterations 2
smoothSolver:  Solving for Uy, Initial residual = 0.0202788, Final residual = 0.00147566, No Iterations 1
smoothSolver:  Solving for Uz, Initial residual = 0.0184237, Final residual = 0.00183102, No Iterations 1
GAMG:  Solving for p, Initial residual = 0.0160005, Final residual = 0.000529281, No Iterations 2
time step continuity errors : sum local = 0.00158086, global = 0.000112572, cumulative = 0.0274934
smoothSolver:  Solving for epsilon, Initial residual = 0.00755136, Final residual = 0.000352282, No Iterations 2
bounding epsilon, min: -0.703422 max: 2247.95 average: 35.9134
smoothSolver:  Solving for k, Initial residual = 0.00635207, Final residual = 0.000437074, No Iterations 2
bounding k, min: -0.176461 max: 146.657 average: 4.28391
ExecutionTime = 63.07 s  ClockTime = 71 s

Time = 59

smoothSolver:  Solving for Ux, Initial residual = 0.0104097, Final residual = 0.000668981, No Iterations 2
smoothSolver:  Solving for Uy, Initial residual = 0.0195698, Final residual = 0.00144498, No Iterations 1
smoothSolver:  Solving for Uz, Initial residual = 0.0176592, Final residual = 0.000511178, No Iterations 2
GAMG:  Solving for p, Initial residual = 0.0159107, Final residual = 0.000501784, No Iterations 2
time step continuity errors : sum local = 0.00147526, global = 0.000102385, cumulative = 0.0275958
smoothSolver:  Solving for epsilon, Initial residual = 0.00753779, Final residual = 0.000357713, No Iterations 2
bounding epsilon, min: -0.791931 max: 2262.91 average: 36.0563
smoothSolver:  Solving for k, Initial residual = 0.00630181, Final residual = 0.00043696, No Iterations 2
bounding k, min: -0.168568 max: 146.676 average: 4.32161
ExecutionTime = 63.9 s  ClockTime = 71 s

Time = 60

smoothSolver:  Solving for Ux, Initial residual = 0.010235, Final residual = 0.000656397, No Iterations 2
smoothSolver:  Solving for Uy, Initial residual = 0.0189943, Final residual = 0.00146562, No Iterations 1
smoothSolver:  Solving for Uz, Initial residual = 0.0168288, Final residual = 0.00166413, No Iterations 1
GAMG:  Solving for p, Initial residual = 0.015585, Final residual = 0.000473987, No Iterations 2
time step continuity errors : sum local = 0.00137206, global = 9.28569e-05, cumulative = 0.0276886
smoothSolver:  Solving for epsilon, Initial residual = 0.00771395, Final residual = 0.000354412, No Iterations 2
bounding epsilon, min: -0.883661 max: 2272.7 average: 36.1873
smoothSolver:  Solving for k, Initial residual = 0.00633557, Final residual = 0.000434583, No Iterations 2
bounding k, min: -0.180525 max: 146.693 average: 4.35823
ExecutionTime = 65.9 s  ClockTime = 74 s

Time = 61

smoothSolver:  Solving for Ux, Initial residual = 0.0100795, Final residual = 0.000646001, No Iterations 2
smoothSolver:  Solving for Uy, Initial residual = 0.0182217, Final residual = 0.00140927, No Iterations 1
smoothSolver:  Solving for Uz, Initial residual = 0.0163005, Final residual = 0.000477819, No Iterations 2
GAMG:  Solving for p, Initial residual = 0.0155, Final residual = 0.000449611, No Iterations 2
time step continuity errors : sum local = 0.00128195, global = 9.15845e-05, cumulative = 0.0277802
smoothSolver:  Solving for epsilon, Initial residual = 0.00767523, Final residual = 0.000356412, No Iterations 2
bounding epsilon, min: -0.815453 max: 2290.36 average: 36.3193
smoothSolver:  Solving for k, Initial residual = 0.00628189, Final residual = 0.00043387, No Iterations 2
bounding k, min: -0.166525 max: 146.663 average: 4.39432
ExecutionTime = 66.73 s  ClockTime = 75 s

Time = 62

smoothSolver:  Solving for Ux, Initial residual = 0.00995084, Final residual = 0.000637126, No Iterations 2
smoothSolver:  Solving for Uy, Initial residual = 0.0175752, Final residual = 0.00140444, No Iterations 1
smoothSolver:  Solving for Uz, Initial residual = 0.0156827, Final residual = 0.000445854, No Iterations 2
GAMG:  Solving for p, Initial residual = 0.0153372, Final residual = 0.000428709, No Iterations 2
time step continuity errors : sum local = 0.00120428, global = 9.82316e-05, cumulative = 0.0278784
smoothSolver:  Solving for epsilon, Initial residual = 0.00776914, Final residual = 0.000356864, No Iterations 2
bounding epsilon, min: -1.09345 max: 2295.8 average: 36.4403
smoothSolver:  Solving for k, Initial residual = 0.00632973, Final residual = 0.00043136, No Iterations 2
bounding k, min: -0.182758 max: 146.62 average: 4.42943
ExecutionTime = 67.56 s  ClockTime = 76 s

Time = 63

smoothSolver:  Solving for Ux, Initial residual = 0.00983323, Final residual = 0.000629356, No Iterations 2
smoothSolver:  Solving for Uy, Initial residual = 0.0169228, Final residual = 0.00137318, No Iterations 1
smoothSolver:  Solving for Uz, Initial residual = 0.0151638, Final residual = 0.000424987, No Iterations 2
GAMG:  Solving for p, Initial residual = 0.0151389, Final residual = 0.000400651, No Iterations 2
time step continuity errors : sum local = 0.00110925, global = 0.000122279, cumulative = 0.0280007
smoothSolver:  Solving for epsilon, Initial residual = 0.00770234, Final residual = 0.000361714, No Iterations 2
bounding epsilon, min: -0.831096 max: 2310.91 average: 36.5632
smoothSolver:  Solving for k, Initial residual = 0.00630735, Final residual = 0.00042979, No Iterations 2
bounding k, min: -0.167585 max: 146.522 average: 4.46382
ExecutionTime = 68.38 s  ClockTime = 77 s

Time = 64

smoothSolver:  Solving for Ux, Initial residual = 0.00972019, Final residual = 0.0006238, No Iterations 2
smoothSolver:  Solving for Uy, Initial residual = 0.0163807, Final residual = 0.00134586, No Iterations 1
smoothSolver:  Solving for Uz, Initial residual = 0.0148179, Final residual = 0.000421448, No Iterations 2
GAMG:  Solving for p, Initial residual = 0.0149347, Final residual = 0.00036473, No Iterations 2
time step continuity errors : sum local = 0.000995651, global = 0.000183276, cumulative = 0.028184
smoothSolver:  Solving for epsilon, Initial residual = 0.00773723, Final residual = 0.000364703, No Iterations 2
bounding epsilon, min: -1.1924 max: 2317.47 average: 36.6734
smoothSolver:  Solving for k, Initial residual = 0.00636818, Final residual = 0.000426682, No Iterations 2
bounding k, min: -0.181301 max: 146.416 average: 4.49675
ExecutionTime = 69.21 s  ClockTime = 77 s

Time = 65

smoothSolver:  Solving for Ux, Initial residual = 0.00961898, Final residual = 0.000620473, No Iterations 2
smoothSolver:  Solving for Uy, Initial residual = 0.0158095, Final residual = 0.00131315, No Iterations 1
smoothSolver:  Solving for Uz, Initial residual = 0.0144795, Final residual = 0.000413532, No Iterations 2
GAMG:  Solving for p, Initial residual = 0.0147287, Final residual = 0.000429473, No Iterations 2
time step continuity errors : sum local = 0.00115685, global = 0.000124197, cumulative = 0.0283082
smoothSolver:  Solving for epsilon, Initial residual = 0.00773458, Final residual = 0.000365938, No Iterations 2
bounding epsilon, min: -0.818109 max: 2322.74 average: 36.7776
smoothSolver:  Solving for k, Initial residual = 0.00635491, Final residual = 0.000424042, No Iterations 2
bounding k, min: -0.167955 max: 146.263 average: 4.52877
ExecutionTime = 71.16 s  ClockTime = 80 s

Time = 66

smoothSolver:  Solving for Ux, Initial residual = 0.00951404, Final residual = 0.000615091, No Iterations 2
smoothSolver:  Solving for Uy, Initial residual = 0.015362, Final residual = 0.00128476, No Iterations 1
smoothSolver:  Solving for Uz, Initial residual = 0.0142815, Final residual = 0.000418352, No Iterations 2
GAMG:  Solving for p, Initial residual = 0.0145692, Final residual = 0.0014411, No Iterations 1
time step continuity errors : sum local = 0.00382909, global = -2.93026e-05, cumulative = 0.0282789
smoothSolver:  Solving for epsilon, Initial residual = 0.00782524, Final residual = 0.000369121, No Iterations 2
bounding epsilon, min: -1.23847 max: 2328.09 average: 36.8721
smoothSolver:  Solving for k, Initial residual = 0.00636467, Final residual = 0.000422164, No Iterations 2
bounding k, min: -0.180279 max: 146.114 average: 4.55949
ExecutionTime = 71.96 s  ClockTime = 81 s

Time = 67

smoothSolver:  Solving for Ux, Initial residual = 0.00944013, Final residual = 0.000609883, No Iterations 2
smoothSolver:  Solving for Uy, Initial residual = 0.0145847, Final residual = 0.0012555, No Iterations 1
smoothSolver:  Solving for Uz, Initial residual = 0.0136319, Final residual = 0.000407959, No Iterations 2
GAMG:  Solving for p, Initial residual = 0.0145709, Final residual = 0.000417728, No Iterations 2
time step continuity errors : sum local = 0.0010962, global = -0.000248433, cumulative = 0.0280304
smoothSolver:  Solving for epsilon, Initial residual = 0.00780824, Final residual = 0.000367121, No Iterations 2
bounding epsilon, min: -0.834214 max: 2333.91 average: 36.9547
smoothSolver:  Solving for k, Initial residual = 0.00638173, Final residual = 0.00042112, No Iterations 2
bounding k, min: -0.170205 max: 145.925 average: 4.58921
ExecutionTime = 72.78 s  ClockTime = 82 s

Time = 68

smoothSolver:  Solving for Ux, Initial residual = 0.00945011, Final residual = 0.000617437, No Iterations 2
smoothSolver:  Solving for Uy, Initial residual = 0.0146872, Final residual = 0.00124232, No Iterations 1
smoothSolver:  Solving for Uz, Initial residual = 0.0139494, Final residual = 0.000427351, No Iterations 2
GAMG:  Solving for p, Initial residual = 0.0142248, Final residual = 0.000306698, No Iterations 2
time step continuity errors : sum local = 0.000794534, global = 8.45401e-05, cumulative = 0.028115
smoothSolver:  Solving for epsilon, Initial residual = 0.00784155, Final residual = 0.000367826, No Iterations 2
bounding epsilon, min: -1.21117 max: 2340.11 average: 37.0333
smoothSolver:  Solving for k, Initial residual = 0.00640214, Final residual = 0.000419135, No Iterations 2
bounding k, min: -0.176123 max: 145.742 average: 4.61778
ExecutionTime = 73.61 s  ClockTime = 82 s

Time = 69

smoothSolver:  Solving for Ux, Initial residual = 0.0094544, Final residual = 0.000615334, No Iterations 2
smoothSolver:  Solving for Uy, Initial residual = 0.0144085, Final residual = 0.00123659, No Iterations 1
smoothSolver:  Solving for Uz, Initial residual = 0.0137803, Final residual = 0.000422714, No Iterations 2
GAMG:  Solving for p, Initial residual = 0.0141348, Final residual = 0.000367533, No Iterations 2
time step continuity errors : sum local = 0.000940294, global = 0.000108283, cumulative = 0.0282233
smoothSolver:  Solving for epsilon, Initial residual = 0.007864, Final residual = 0.000363712, No Iterations 2
bounding epsilon, min: -0.814845 max: 2342.91 average: 37.0999
smoothSolver:  Solving for k, Initial residual = 0.00638036, Final residual = 0.000416569, No Iterations 2
bounding k, min: -0.171109 max: 145.522 average: 4.64623
ExecutionTime = 74.43 s  ClockTime = 83 s

Time = 70

smoothSolver:  Solving for Ux, Initial residual = 0.00936144, Final residual = 0.000605721, No Iterations 2
smoothSolver:  Solving for Uy, Initial residual = 0.0137719, Final residual = 0.00121504, No Iterations 1
smoothSolver:  Solving for Uz, Initial residual = 0.0134027, Final residual = 0.000425054, No Iterations 2
GAMG:  Solving for p, Initial residual = 0.0138977, Final residual = 0.00137932, No Iterations 1
time step continuity errors : sum local = 0.00348514, global = 2.37516e-05, cumulative = 0.028247
smoothSolver:  Solving for epsilon, Initial residual = 0.00782113, Final residual = 0.000364875, No Iterations 2
bounding epsilon, min: -1.13631 max: 2348.11 average: 37.164
smoothSolver:  Solving for k, Initial residual = 0.00635244, Final residual = 0.0004096, No Iterations 2
bounding k, min: -0.17573 max: 145.291 average: 4.67457
ExecutionTime = 76.38 s  ClockTime = 86 s

Time = 71

smoothSolver:  Solving for Ux, Initial residual = 0.00927897, Final residual = 0.000594996, No Iterations 2
smoothSolver:  Solving for Uy, Initial residual = 0.0130691, Final residual = 0.00120955, No Iterations 1
smoothSolver:  Solving for Uz, Initial residual = 0.0126496, Final residual = 0.000416395, No Iterations 2
GAMG:  Solving for p, Initial residual = 0.0138371, Final residual = 0.000331553, No Iterations 2
time step continuity errors : sum local = 0.0008284, global = 0.000198859, cumulative = 0.0284459
smoothSolver:  Solving for epsilon, Initial residual = 0.00774125, Final residual = 0.000357452, No Iterations 2
bounding epsilon, min: -0.789232 max: 2346.33 average: 37.2198
smoothSolver:  Solving for k, Initial residual = 0.00631528, Final residual = 0.000404965, No Iterations 2
bounding k, min: -0.172298 max: 144.983 average: 4.70281
ExecutionTime = 77.2 s  ClockTime = 87 s

Time = 72

smoothSolver:  Solving for Ux, Initial residual = 0.00933646, Final residual = 0.000598773, No Iterations 2
smoothSolver:  Solving for Uy, Initial residual = 0.0132841, Final residual = 0.00118868, No Iterations 1
smoothSolver:  Solving for Uz, Initial residual = 0.0129443, Final residual = 0.000438608, No Iterations 2
GAMG:  Solving for p, Initial residual = 0.0135175, Final residual = 0.00031893, No Iterations 2
time step continuity errors : sum local = 0.000787107, global = 8.32165e-05, cumulative = 0.0285291
smoothSolver:  Solving for epsilon, Initial residual = 0.00764514, Final residual = 0.0003539, No Iterations 2
bounding epsilon, min: -0.944838 max: 2349.87 average: 37.2762
smoothSolver:  Solving for k, Initial residual = 0.00625056, Final residual = 0.000399906, No Iterations 2
bounding k, min: -0.178869 max: 144.575 average: 4.73172
ExecutionTime = 78.03 s  ClockTime = 87 s

Time = 73

smoothSolver:  Solving for Ux, Initial residual = 0.00924954, Final residual = 0.000591652, No Iterations 2
smoothSolver:  Solving for Uy, Initial residual = 0.0128827, Final residual = 0.00118878, No Iterations 1
smoothSolver:  Solving for Uz, Initial residual = 0.0126085, Final residual = 0.000432267, No Iterations 2
GAMG:  Solving for p, Initial residual = 0.0132616, Final residual = 0.000318853, No Iterations 2
time step continuity errors : sum local = 0.00077854, global = 6.752e-05, cumulative = 0.0285966
smoothSolver:  Solving for epsilon, Initial residual = 0.00753476, Final residual = 0.000352605, No Iterations 2
bounding epsilon, min: -0.746248 max: 2344.38 average: 37.3259
smoothSolver:  Solving for k, Initial residual = 0.00621063, Final residual = 0.000393411, No Iterations 2
bounding k, min: -0.174488 max: 144.111 average: 4.76089
ExecutionTime = 78.86 s  ClockTime = 88 s

Time = 74

smoothSolver:  Solving for Ux, Initial residual = 0.0091914, Final residual = 0.000584378, No Iterations 2
smoothSolver:  Solving for Uy, Initial residual = 0.0127131, Final residual = 0.00118733, No Iterations 1
smoothSolver:  Solving for Uz, Initial residual = 0.0124118, Final residual = 0.000436899, No Iterations 2
GAMG:  Solving for p, Initial residual = 0.013162, Final residual = 0.000247955, No Iterations 2
time step continuity errors : sum local = 0.000598277, global = 6.83737e-05, cumulative = 0.028665
smoothSolver:  Solving for epsilon, Initial residual = 0.00747375, Final residual = 0.000349108, No Iterations 2
bounding epsilon, min: -0.819742 max: 2344.48 average: 37.3856
smoothSolver:  Solving for k, Initial residual = 0.00616048, Final residual = 0.000388102, No Iterations 2
bounding k, min: -0.183816 max: 143.593 average: 4.79062
ExecutionTime = 79.67 s  ClockTime = 89 s

Time = 75

smoothSolver:  Solving for Ux, Initial residual = 0.00915998, Final residual = 0.000581966, No Iterations 2
smoothSolver:  Solving for Uy, Initial residual = 0.0125792, Final residual = 0.00119219, No Iterations 1
smoothSolver:  Solving for Uz, Initial residual = 0.0121333, Final residual = 0.000430671, No Iterations 2
GAMG:  Solving for p, Initial residual = 0.0130297, Final residual = 0.000297738, No Iterations 2
time step continuity errors : sum local = 0.000710658, global = 2.86858e-05, cumulative = 0.0286937
smoothSolver:  Solving for epsilon, Initial residual = 0.00738937, Final residual = 0.000344229, No Iterations 2
bounding epsilon, min: -0.711426 max: 2341.67 average: 37.4326
smoothSolver:  Solving for k, Initial residual = 0.00611465, Final residual = 0.000382355, No Iterations 2
bounding k, min: -0.173495 max: 143.074 average: 4.82053
ExecutionTime = 81.68 s  ClockTime = 92 s

Time = 76

smoothSolver:  Solving for Ux, Initial residual = 0.00907772, Final residual = 0.000574839, No Iterations 2
smoothSolver:  Solving for Uy, Initial residual = 0.0121918, Final residual = 0.00118206, No Iterations 1
smoothSolver:  Solving for Uz, Initial residual = 0.0118489, Final residual = 0.00042544, No Iterations 2
GAMG:  Solving for p, Initial residual = 0.012924, Final residual = 0.000287866, No Iterations 2
time step continuity errors : sum local = 0.000679025, global = 8.74339e-05, cumulative = 0.0287811
smoothSolver:  Solving for epsilon, Initial residual = 0.00731404, Final residual = 0.000340756, No Iterations 2
bounding epsilon, min: -0.681477 max: 2334.62 average: 37.4872
smoothSolver:  Solving for k, Initial residual = 0.00608202, Final residual = 0.000378207, No Iterations 2
bounding k, min: -0.183664 max: 142.54 average: 4.85013
ExecutionTime = 82.5 s  ClockTime = 93 s

Time = 77

smoothSolver:  Solving for Ux, Initial residual = 0.00900489, Final residual = 0.000567003, No Iterations 2
smoothSolver:  Solving for Uy, Initial residual = 0.0119811, Final residual = 0.00118659, No Iterations 1
smoothSolver:  Solving for Uz, Initial residual = 0.0116744, Final residual = 0.000417931, No Iterations 2
GAMG:  Solving for p, Initial residual = 0.0128227, Final residual = 0.00126119, No Iterations 1
time step continuity errors : sum local = 0.00294257, global = -4.18575e-05, cumulative = 0.0287393
smoothSolver:  Solving for epsilon, Initial residual = 0.007182, Final residual = 0.000337124, No Iterations 2
bounding epsilon, min: -0.726635 max: 2329.79 average: 37.5263
smoothSolver:  Solving for k, Initial residual = 0.00602517, Final residual = 0.000372831, No Iterations 2
bounding k, min: -0.17258 max: 142.008 average: 4.87958
ExecutionTime = 83.29 s  ClockTime = 93 s

Time = 78

smoothSolver:  Solving for Ux, Initial residual = 0.00892996, Final residual = 0.000559728, No Iterations 2
smoothSolver:  Solving for Uy, Initial residual = 0.0114367, Final residual = 0.000318281, No Iterations 2
smoothSolver:  Solving for Uz, Initial residual = 0.0112312, Final residual = 0.000410447, No Iterations 2
GAMG:  Solving for p, Initial residual = 0.0131912, Final residual = 0.000338357, No Iterations 2
time step continuity errors : sum local = 0.000780224, global = 0.000175759, cumulative = 0.028915
smoothSolver:  Solving for epsilon, Initial residual = 0.00711864, Final residual = 0.000332735, No Iterations 2
bounding epsilon, min: -0.657209 max: 2316.82 average: 37.5699
smoothSolver:  Solving for k, Initial residual = 0.00598126, Final residual = 0.000367225, No Iterations 2
bounding k, min: -0.180913 max: 141.456 average: 4.90938
ExecutionTime = 84.12 s  ClockTime = 94 s

Time = 79

smoothSolver:  Solving for Ux, Initial residual = 0.00897089, Final residual = 0.000566952, No Iterations 2
smoothSolver:  Solving for Uy, Initial residual = 0.0114548, Final residual = 0.00111325, No Iterations 1
smoothSolver:  Solving for Uz, Initial residual = 0.0117181, Final residual = 0.000421263, No Iterations 2
GAMG:  Solving for p, Initial residual = 0.0127485, Final residual = 0.000341215, No Iterations 2
time step continuity errors : sum local = 0.00077797, global = 0.00012928, cumulative = 0.0290443
smoothSolver:  Solving for epsilon, Initial residual = 0.00702723, Final residual = 0.000329236, No Iterations 2
bounding epsilon, min: -0.697937 max: 2309.11 average: 37.6079
smoothSolver:  Solving for k, Initial residual = 0.00591932, Final residual = 0.000360092, No Iterations 2
bounding k, min: -0.176203 max: 140.904 average: 4.93892
ExecutionTime = 84.94 s  ClockTime = 95 s

Time = 80

smoothSolver:  Solving for Ux, Initial residual = 0.00886959, Final residual = 0.000562453, No Iterations 2
smoothSolver:  Solving for Uy, Initial residual = 0.0112397, Final residual = 0.00029961, No Iterations 2
smoothSolver:  Solving for Uz, Initial residual = 0.0115855, Final residual = 0.000415023, No Iterations 2
GAMG:  Solving for p, Initial residual = 0.0127355, Final residual = 0.00125902, No Iterations 1
time step continuity errors : sum local = 0.00283745, global = -0.000222311, cumulative = 0.028822
smoothSolver:  Solving for epsilon, Initial residual = 0.00692479, Final residual = 0.000326127, No Iterations 2
bounding epsilon, min: -0.615165 max: 2300.15 average: 37.6405
smoothSolver:  Solving for k, Initial residual = 0.00585825, Final residual = 0.000354371, No Iterations 2
bounding k, min: -0.176891 max: 140.326 average: 4.96869
ExecutionTime = 86.92 s  ClockTime = 98 s

Time = 81

smoothSolver:  Solving for Ux, Initial residual = 0.00887774, Final residual = 0.000562922, No Iterations 2
smoothSolver:  Solving for Uy, Initial residual = 0.0107964, Final residual = 0.000291551, No Iterations 2
smoothSolver:  Solving for Uz, Initial residual = 0.0112118, Final residual = 0.000410996, No Iterations 2
GAMG:  Solving for p, Initial residual = 0.0128238, Final residual = 0.00038657, No Iterations 2
time step continuity errors : sum local = 0.000861595, global = -0.000184388, cumulative = 0.0286376
smoothSolver:  Solving for epsilon, Initial residual = 0.00690516, Final residual = 0.000323333, No Iterations 2
bounding epsilon, min: -0.725532 max: 2290.68 average: 37.6621
smoothSolver:  Solving for k, Initial residual = 0.0057777, Final residual = 0.000349654, No Iterations 2
bounding k, min: -0.183527 max: 139.754 average: 4.99758
ExecutionTime = 87.74 s  ClockTime = 98 s

Time = 82

smoothSolver:  Solving for Ux, Initial residual = 0.00890939, Final residual = 0.000569857, No Iterations 2
smoothSolver:  Solving for Uy, Initial residual = 0.0108215, Final residual = 0.00104632, No Iterations 1
smoothSolver:  Solving for Uz, Initial residual = 0.0115687, Final residual = 0.000417824, No Iterations 2
GAMG:  Solving for p, Initial residual = 0.012386, Final residual = 0.00122947, No Iterations 1
time step continuity errors : sum local = 0.00270768, global = -2.74503e-05, cumulative = 0.0286101
smoothSolver:  Solving for epsilon, Initial residual = 0.00687674, Final residual = 0.000321689, No Iterations 2
bounding epsilon, min: -0.539532 max: 2277.52 average: 37.6827
smoothSolver:  Solving for k, Initial residual = 0.0057605, Final residual = 0.000342654, No Iterations 2
bounding k, min: -0.171183 max: 139.158 average: 5.02648
ExecutionTime = 88.54 s  ClockTime = 99 s

Time = 83

smoothSolver:  Solving for Ux, Initial residual = 0.00880822, Final residual = 0.000557752, No Iterations 2
smoothSolver:  Solving for Uy, Initial residual = 0.0103018, Final residual = 0.000289255, No Iterations 2
smoothSolver:  Solving for Uz, Initial residual = 0.0111021, Final residual = 0.000406171, No Iterations 2
GAMG:  Solving for p, Initial residual = 0.0127383, Final residual = 0.000290234, No Iterations 2
time step continuity errors : sum local = 0.000631811, global = -5.92625e-05, cumulative = 0.0285509
smoothSolver:  Solving for epsilon, Initial residual = 0.00686105, Final residual = 0.000319754, No Iterations 2
bounding epsilon, min: -0.654376 max: 2266.8 average: 37.6862
smoothSolver:  Solving for k, Initial residual = 0.00568685, Final residual = 0.000338437, No Iterations 2
bounding k, min: -0.182652 max: 138.568 average: 5.05459
ExecutionTime = 89.36 s  ClockTime = 100 s

Time = 84

smoothSolver:  Solving for Ux, Initial residual = 0.00882684, Final residual = 0.000562048, No Iterations 2
smoothSolver:  Solving for Uy, Initial residual = 0.0105678, Final residual = 0.00105218, No Iterations 1
smoothSolver:  Solving for Uz, Initial residual = 0.0116536, Final residual = 0.000419295, No Iterations 2
GAMG:  Solving for p, Initial residual = 0.012352, Final residual = 0.001222, No Iterations 1
time step continuity errors : sum local = 0.00262817, global = -3.99427e-05, cumulative = 0.0285109
smoothSolver:  Solving for epsilon, Initial residual = 0.00682901, Final residual = 0.00032028, No Iterations 2
bounding epsilon, min: -0.505161 max: 2251.81 average: 37.6875
smoothSolver:  Solving for k, Initial residual = 0.00568699, Final residual = 0.000334561, No Iterations 2
bounding k, min: -0.172155 max: 137.951 average: 5.08299
ExecutionTime = 90.18 s  ClockTime = 101 s

Time = 85

smoothSolver:  Solving for Ux, Initial residual = 0.0087382, Final residual = 0.000551948, No Iterations 2
smoothSolver:  Solving for Uy, Initial residual = 0.0100856, Final residual = 0.000292617, No Iterations 2
smoothSolver:  Solving for Uz, Initial residual = 0.0111842, Final residual = 0.000407475, No Iterations 2
GAMG:  Solving for p, Initial residual = 0.0126762, Final residual = 0.000260458, No Iterations 2
time step continuity errors : sum local = 0.00055387, global = 7.98674e-05, cumulative = 0.0285908
